
     RDKit          3D

 40 42  0  0  0  0  0  0  0  0999 V2000
    7.1398   -1.5341    1.5033 C   0  0  0  0  0  0  0  0  0  0  0  0
    6.6505   -0.0898    1.4553 C   0  0  0  0  0  0  0  0  0  0  0  0
    5.4902    0.1326    2.4280 C   0  0  0  0  0  0  0  0  0  0  0  0
    4.9687    1.8839    2.4311 S   0  0  0  0  0  0  0  0  0  0  0  0
    3.9719    1.7528    0.9492 C   0  0  0  0  0  0  0  0  0  0  0  0
    4.5062    2.0636   -0.2588 N   0  0  0  0  0  0  0  0  0  0  0  0
    3.7678    1.9645   -1.3929 C   0  0  0  0  0  0  0  0  0  0  0  0
    2.4366    1.5463   -1.3309 C   0  0  0  0  0  0  0  0  0  0  0  0
    1.8874    1.2528   -0.0661 C   0  0  0  0  0  0  0  0  0  0  0  0
    2.6772    1.3538    1.0371 N   0  0  0  0  0  0  0  0  0  0  0  0
    0.4906    0.8133    0.1129 C   0  0  0  0  0  0  0  0  0  0  0  0
    0.2376   -0.0703    0.9759 O   0  0  0  0  0  0  0  0  0  0  0  0
   -0.5773    1.4344   -0.6199 N   0  0  0  0  0  0  0  0  0  0  0  0
   -1.9039    0.8982   -0.6934 C   0  0  0  0  0  0  0  0  0  0  0  0
   -2.2659   -0.2968   -0.1637 N   0  0  0  0  0  0  0  0  0  0  0  0
   -3.5770   -0.5515   -0.4051 C   0  0  0  0  0  0  0  0  0  0  0  0
   -4.2465   -1.7000    0.0147 C   0  0  0  0  0  0  0  0  0  0  0  0
   -5.6082   -1.8446   -0.3017 C   0  0  0  0  0  0  0  0  0  0  0  0
   -6.2910   -0.8397   -1.0366 C   0  0  0  0  0  0  0  0  0  0  0  0
   -5.5946    0.3097   -1.4499 C   0  0  0  0  0  0  0  0  0  0  0  0
   -4.2471    0.4260   -1.1216 C   0  0  0  0  0  0  0  0  0  0  0  0
   -3.1846    1.6744   -1.4840 S   0  0  0  0  0  0  0  0  0  0  0  0
   -7.6487   -0.9481   -1.3715 O   0  0  0  0  0  0  0  0  0  0  0  0
   -8.4773   -2.0510   -1.0191 C   0  0  0  0  0  0  0  0  0  0  0  0
    1.5545    1.3154   -2.8373 Cl  0  0  0  0  0  0  0  0  0  0  0  0
    7.5003   -1.7861    2.5233 H   0  0  0  0  0  0  0  0  0  0  0  0
    7.9784   -1.6663    0.7877 H   0  0  0  0  0  0  0  0  0  0  0  0
    6.3195   -2.2284    1.2216 H   0  0  0  0  0  0  0  0  0  0  0  0
    6.3251    0.1412    0.4191 H   0  0  0  0  0  0  0  0  0  0  0  0
    7.4923    0.5864    1.7195 H   0  0  0  0  0  0  0  0  0  0  0  0
    5.8200   -0.1231    3.4574 H   0  0  0  0  0  0  0  0  0  0  0  0
    4.6326   -0.5259    2.1690 H   0  0  0  0  0  0  0  0  0  0  0  0
    4.2234    2.1961   -2.3466 H   0  0  0  0  0  0  0  0  0  0  0  0
   -0.3928    2.3417   -1.1032 H   0  0  0  0  0  0  0  0  0  0  0  0
   -3.7284   -2.4681    0.5748 H   0  0  0  0  0  0  0  0  0  0  0  0
   -6.1211   -2.7377    0.0273 H   0  0  0  0  0  0  0  0  0  0  0  0
   -6.0942    1.0887   -2.0116 H   0  0  0  0  0  0  0  0  0  0  0  0
   -9.5006   -1.8750   -1.4094 H   0  0  0  0  0  0  0  0  0  0  0  0
   -8.5304   -2.1511    0.0856 H   0  0  0  0  0  0  0  0  0  0  0  0
   -8.0810   -2.9856   -1.4693 H   0  0  0  0  0  0  0  0  0  0  0  0
  1  2  1  0
  2  3  1  0
  3  4  1  0
  4  5  1  0
  5  6  2  0
  6  7  1  0
  7  8  2  0
  8  9  1  0
  9 10  2  0
  9 11  1  0
 11 12  2  0
 11 13  1  0
 13 14  1  0
 14 15  2  0
 15 16  1  0
 16 17  2  0
 17 18  1  0
 18 19  2  0
 19 20  1  0
 20 21  2  0
 21 22  1  0
 19 23  1  0
 23 24  1  0
  8 25  1  0
 10  5  1  0
 22 14  1  0
 21 16  1  0
  1 26  1  0
  1 27  1  0
  1 28  1  0
  2 29  1  0
  2 30  1  0
  3 31  1  0
  3 32  1  0
  7 33  1  0
 13 34  1  0
 17 35  1  0
 18 36  1  0
 20 37  1  0
 24 38  1  0
 24 39  1  0
 24 40  1  0
M  END
