REMARK SMILES CCCSc1ncc(Cl)c(C(=O)Nc2nc3ccc(OC)cc3s2)n1
REMARK SMILES IDX 5 1 6 2 7 3 8 4 10 5 25 6 9 7 4 8 3 9 2 10 1 11 11 12 12 13
REMARK SMILES IDX 13 14 14 16 15 17 24 18 16 19 23 20 17 21 22 22 18 23 19 24
REMARK SMILES IDX 20 25 21 26
REMARK H PARENT 13 15
ROOT
ATOM      1  C   UNL     1       3.972   1.753   0.949  1.00  0.00     0.188 A 
ATOM      2  N   UNL     1       4.506   2.064  -0.259  1.00  0.00    -0.230 NA
ATOM      3  C   UNL     1       3.768   1.964  -1.393  1.00  0.00     0.137 A 
ATOM      4  C   UNL     1       2.437   1.546  -1.331  1.00  0.00     0.090 A 
ATOM      5  C   UNL     1       1.887   1.253  -0.066  1.00  0.00     0.151 A 
ATOM      6  N   UNL     1       2.677   1.354   1.037  1.00  0.00    -0.216 NA
ATOM      7  Cl  UNL     1       1.554   1.315  -2.837  1.00  0.00    -0.080 Cl
ENDROOT
BRANCH   1   8
ATOM      8  S   UNL     1       4.969   1.884   2.431  1.00  0.00    -0.086 SA
BRANCH   8   9
ATOM      9  C   UNL     1       5.490   0.133   2.428  1.00  0.00     0.078 C 
BRANCH   9  10
ATOM     10  C   UNL     1       6.651  -0.090   1.455  1.00  0.00     0.008 C 
ATOM     11  C   UNL     1       7.140  -1.534   1.503  1.00  0.00     0.005 C 
ENDBRANCH   9  10
ENDBRANCH   8   9
ENDBRANCH   1   8
BRANCH   5  12
ATOM     12  C   UNL     1       0.491   0.813   0.113  1.00  0.00     0.277 C 
ATOM     13  O   UNL     1       0.238  -0.070   0.976  1.00  0.00    -0.267 OA
ATOM     14  N   UNL     1      -0.577   1.434  -0.620  1.00  0.00    -0.296 N 
ATOM     15  H   UNL     1      -0.393   2.342  -1.103  1.00  0.00     0.172 HD
BRANCH  14  16
ATOM     16  C   UNL     1      -1.904   0.898  -0.693  1.00  0.00     0.190 A 
ATOM     17  N   UNL     1      -2.266  -0.297  -0.164  1.00  0.00    -0.220 NA
ATOM     18  S   UNL     1      -3.185   1.674  -1.484  1.00  0.00    -0.096 S 
ATOM     19  C   UNL     1      -3.577  -0.551  -0.405  1.00  0.00     0.084 A 
ATOM     20  C   UNL     1      -4.247   0.426  -1.122  1.00  0.00     0.060 A 
ATOM     21  C   UNL     1      -4.247  -1.700   0.015  1.00  0.00     0.034 A 
ATOM     22  C   UNL     1      -5.595   0.310  -1.450  1.00  0.00     0.067 A 
ATOM     23  C   UNL     1      -5.608  -1.845  -0.302  1.00  0.00     0.049 A 
ATOM     24  C   UNL     1      -6.291  -0.840  -1.037  1.00  0.00     0.120 A 
BRANCH  24  25
ATOM     25  O   UNL     1      -7.649  -0.948  -1.371  1.00  0.00    -0.497 OA
ATOM     26  C   UNL     1      -8.477  -2.051  -1.019  1.00  0.00     0.278 C 
ENDBRANCH  24  25
ENDBRANCH  14  16
ENDBRANCH   5  12
TORSDOF 6
