ligand-2BMF
     RDKit          3D

 40 42  0  0  0  0  0  0  0  0999 V2000
   -6.4690   -0.3500   50.4540 C   0  0  0  0  0  0  0  0  0  0  0  0
   -6.7910   -1.7810   50.0360 C   0  0  0  0  0  0  0  0  0  0  0  0
   -5.6520   -2.7350   50.4070 C   0  0  0  0  0  0  0  0  0  0  0  0
   -6.3050   -4.2910   51.1050 S   0  0  0  0  0  0  0  0  0  0  0  0
   -4.8890   -4.5960   52.1580 C   0  0  0  0  0  0  0  0  0  0  0  0
   -4.4170   -5.8590   52.3120 N   0  0  0  0  0  0  0  0  0  0  0  0
   -3.3410   -6.1090   53.1000 C   0  0  0  0  0  0  0  0  0  0  0  0
   -2.7060   -5.0640   53.7750 C   0  0  0  0  0  0  0  0  0  0  0  0
   -1.2420   -5.4150   54.6890 Cl  0  0  0  0  0  0  0  0  0  0  0  0
   -3.2250   -3.7610   53.6280 C   0  0  0  0  0  0  0  0  0  0  0  0
   -2.6370   -2.5880   54.3020 C   0  0  0  0  0  0  0  0  0  0  0  0
   -3.1260   -2.2110   55.4010 O   0  0  0  0  0  0  0  0  0  0  0  0
   -1.4760   -1.9340   53.7650 N   0  0  0  0  0  0  0  0  0  0  0  0
   -1.0090   -0.6560   54.2130 C   0  0  0  0  0  0  0  0  0  0  0  0
    0.1610   -0.4670   54.8720 N   0  0  0  0  0  0  0  0  0  0  0  0
    0.3280    0.8420   55.1870 C   0  0  0  0  0  0  0  0  0  0  0  0
    1.4350    1.3540   55.8640 C   0  0  0  0  0  0  0  0  0  0  0  0
    1.4870    2.7320   56.1340 C   0  0  0  0  0  0  0  0  0  0  0  0
    0.4320    3.5900   55.7250 C   0  0  0  0  0  0  0  0  0  0  0  0
    0.4490    4.9700   55.9740 O   0  0  0  0  0  0  0  0  0  0  0  0
    0.4070    5.9690   54.9610 C   0  0  0  0  0  0  0  0  0  0  0  0
   -0.6740    3.0510   55.0430 C   0  0  0  0  0  0  0  0  0  0  0  0
   -0.6980    1.6820   54.7910 C   0  0  0  0  0  0  0  0  0  0  0  0
   -1.8800    0.7830   54.0080 S   0  0  0  0  0  0  0  0  0  0  0  0
   -4.2960   -3.5650   52.8120 N   0  0  0  0  0  0  0  0  0  0  0  0
   -6.4540   -0.2833   51.5519 H   0  0  0  0  0  0  0  0  0  0  0  0
   -5.4842   -0.0645   50.0558 H   0  0  0  0  0  0  0  0  0  0  0  0
   -7.2366    0.3298   50.0558 H   0  0  0  0  0  0  0  0  0  0  0  0
   -7.7108   -2.1052   50.5447 H   0  0  0  0  0  0  0  0  0  0  0  0
   -6.9234   -1.8039   48.9442 H   0  0  0  0  0  0  0  0  0  0  0  0
   -5.0655   -2.9634   49.5049 H   0  0  0  0  0  0  0  0  0  0  0  0
   -5.0194   -2.2488   51.1643 H   0  0  0  0  0  0  0  0  0  0  0  0
   -2.9676   -7.1381   53.2076 H   0  0  0  0  0  0  0  0  0  0  0  0
   -0.9190   -2.4250   53.0300 H   0  0  0  0  0  0  0  0  0  0  0  0
    2.2531    0.6905   56.1810 H   0  0  0  0  0  0  0  0  0  0  0  0
    2.3534    3.1502   56.6674 H   0  0  0  0  0  0  0  0  0  0  0  0
    0.3652    6.9638   55.4286 H   0  0  0  0  0  0  0  0  0  0  0  0
    1.3090    5.8954   54.3358 H   0  0  0  0  0  0  0  0  0  0  0  0
   -0.4857    5.8199   54.3358 H   0  0  0  0  0  0  0  0  0  0  0  0
   -1.5019    3.6972   54.7159 H   0  0  0  0  0  0  0  0  0  0  0  0
  1  2  1  0
  2  3  1  0
  3  4  1  0
  4  5  1  0
  5  6  2  0
  6  7  1  0
  7  8  2  0
  8  9  1  0
  8 10  1  0
 10 11  1  0
 11 12  2  0
 11 13  1  0
 13 14  1  0
 14 15  2  0
 15 16  1  0
 16 17  2  0
 17 18  1  0
 18 19  2  0
 19 20  1  0
 20 21  1  0
 19 22  1  0
 22 23  2  0
 23 24  1  0
 10 25  2  0
 25  5  1  0
 24 14  1  0
 23 16  1  0
  1 26  1  0
  1 27  1  0
  1 28  1  0
  2 29  1  0
  2 30  1  0
  3 31  1  0
  3 32  1  0
  7 33  1  0
 13 34  1  0
 17 35  1  0
 18 36  1  0
 21 37  1  0
 21 38  1  0
 21 39  1  0
 22 40  1  0
M  END
>  <meeko>  (1) 
{"is_sidechain": [false], "free_energy": -5.817, "intermolecular_energy": -7.857, "internal_energy": -0.531}

$$$$
ligand-2BMF
     RDKit          3D

 40 42  0  0  0  0  0  0  0  0999 V2000
   -7.8580   -5.1830   50.2660 C   0  0  0  0  0  0  0  0  0  0  0  0
   -7.1300   -5.1080   51.6040 C   0  0  0  0  0  0  0  0  0  0  0  0
   -5.7570   -4.4460   51.4500 C   0  0  0  0  0  0  0  0  0  0  0  0
   -4.6950   -4.8070   52.8920 S   0  0  0  0  0  0  0  0  0  0  0  0
   -3.1720   -4.3070   52.0940 C   0  0  0  0  0  0  0  0  0  0  0  0
   -2.6710   -5.0390   51.0670 N   0  0  0  0  0  0  0  0  0  0  0  0
   -1.5220   -4.6710   50.4460 C   0  0  0  0  0  0  0  0  0  0  0  0
   -0.8310   -3.5320   50.8630 C   0  0  0  0  0  0  0  0  0  0  0  0
    0.5880   -3.0250   49.9510 Cl  0  0  0  0  0  0  0  0  0  0  0  0
   -1.3490   -2.7960   51.9490 C   0  0  0  0  0  0  0  0  0  0  0  0
   -0.6930   -1.5850   52.4750 C   0  0  0  0  0  0  0  0  0  0  0  0
    0.3710   -1.7090   53.1390 O   0  0  0  0  0  0  0  0  0  0  0  0
   -1.2060   -0.2780   52.1690 N   0  0  0  0  0  0  0  0  0  0  0  0
   -0.7860    0.9150   52.8430 C   0  0  0  0  0  0  0  0  0  0  0  0
   -0.3440    2.0270   52.2040 N   0  0  0  0  0  0  0  0  0  0  0  0
    0.0020    2.9880   53.0980 C   0  0  0  0  0  0  0  0  0  0  0  0
    0.4910    4.2470   52.7510 C   0  0  0  0  0  0  0  0  0  0  0  0
    0.8170    5.1530   53.7740 C   0  0  0  0  0  0  0  0  0  0  0  0
    0.6530    4.7940   55.1380 C   0  0  0  0  0  0  0  0  0  0  0  0
    0.9660    5.6710   56.1870 O   0  0  0  0  0  0  0  0  0  0  0  0
    1.5310    5.2680   57.4290 C   0  0  0  0  0  0  0  0  0  0  0  0
    0.1590    3.5190   55.4640 C   0  0  0  0  0  0  0  0  0  0  0  0
   -0.1550    2.6420   54.4290 C   0  0  0  0  0  0  0  0  0  0  0  0
   -0.7530    1.0770   54.5280 S   0  0  0  0  0  0  0  0  0  0  0  0
   -2.5130   -3.2000   52.5250 N   0  0  0  0  0  0  0  0  0  0  0  0
   -8.9381   -5.2943   50.4420 H   0  0  0  0  0  0  0  0  0  0  0  0
   -7.6725   -4.2610   49.6955 H   0  0  0  0  0  0  0  0  0  0  0  0
   -7.4884   -6.0478   49.6955 H   0  0  0  0  0  0  0  0  0  0  0  0
   -7.7351   -4.5197   52.3095 H   0  0  0  0  0  0  0  0  0  0  0  0
   -6.9836   -6.1316   51.9793 H   0  0  0  0  0  0  0  0  0  0  0  0
   -5.2720   -4.8297   50.5403 H   0  0  0  0  0  0  0  0  0  0  0  0
   -5.8972   -3.3572   51.3801 H   0  0  0  0  0  0  0  0  0  0  0  0
   -1.1336   -5.2724   49.6109 H   0  0  0  0  0  0  0  0  0  0  0  0
   -1.9000   -0.1790   51.3950 H   0  0  0  0  0  0  0  0  0  0  0  0
    0.6192    4.5259   51.6947 H   0  0  0  0  0  0  0  0  0  0  0  0
    1.2030    6.1502   53.5158 H   0  0  0  0  0  0  0  0  0  0  0  0
    0.9396    5.6899   58.2550 H   0  0  0  0  0  0  0  0  0  0  0  0
    1.5236    4.1701   57.4961 H   0  0  0  0  0  0  0  0  0  0  0  0
    2.5667    5.6325   57.4961 H   0  0  0  0  0  0  0  0  0  0  0  0
    0.0234    3.2205   56.5140 H   0  0  0  0  0  0  0  0  0  0  0  0
  1  2  1  0
  2  3  1  0
  3  4  1  0
  4  5  1  0
  5  6  2  0
  6  7  1  0
  7  8  2  0
  8  9  1  0
  8 10  1  0
 10 11  1  0
 11 12  2  0
 11 13  1  0
 13 14  1  0
 14 15  2  0
 15 16  1  0
 16 17  2  0
 17 18  1  0
 18 19  2  0
 19 20  1  0
 20 21  1  0
 19 22  1  0
 22 23  2  0
 23 24  1  0
 10 25  2  0
 25  5  1  0
 24 14  1  0
 23 16  1  0
  1 26  1  0
  1 27  1  0
  1 28  1  0
  2 29  1  0
  2 30  1  0
  3 31  1  0
  3 32  1  0
  7 33  1  0
 13 34  1  0
 17 35  1  0
 18 36  1  0
 21 37  1  0
 21 38  1  0
 21 39  1  0
 22 40  1  0
M  END
>  <meeko>  (2) 
{"is_sidechain": [false], "free_energy": -5.611, "intermolecular_energy": -7.785, "internal_energy": -0.325}

$$$$
ligand-2BMF
     RDKit          3D

 40 42  0  0  0  0  0  0  0  0999 V2000
   -3.4210   -1.5780   50.0180 C   0  0  0  0  0  0  0  0  0  0  0  0
   -2.7160   -0.2280   49.9300 C   0  0  0  0  0  0  0  0  0  0  0  0
   -1.5060   -0.1740   50.8670 C   0  0  0  0  0  0  0  0  0  0  0  0
    0.0530   -0.3450   49.9300 S   0  0  0  0  0  0  0  0  0  0  0  0
    0.3990   -2.0060   50.5040 C   0  0  0  0  0  0  0  0  0  0  0  0
    1.4360   -2.7050   49.9780 N   0  0  0  0  0  0  0  0  0  0  0  0
    1.7170   -3.9610   50.4050 C   0  0  0  0  0  0  0  0  0  0  0  0
    0.9320   -4.5600   51.3930 C   0  0  0  0  0  0  0  0  0  0  0  0
    1.4050   -6.1430   52.0030 Cl  0  0  0  0  0  0  0  0  0  0  0  0
   -0.1600   -3.8330   51.9100 C   0  0  0  0  0  0  0  0  0  0  0  0
   -1.0580   -4.3750   52.9470 C   0  0  0  0  0  0  0  0  0  0  0  0
   -1.7920   -5.3580   52.6620 O   0  0  0  0  0  0  0  0  0  0  0  0
   -1.0400   -3.8490   54.2840 N   0  0  0  0  0  0  0  0  0  0  0  0
   -2.0450   -4.1410   55.2630 C   0  0  0  0  0  0  0  0  0  0  0  0
   -1.8440   -4.9450   56.3360 N   0  0  0  0  0  0  0  0  0  0  0  0
   -2.9770   -5.0520   57.0750 C   0  0  0  0  0  0  0  0  0  0  0  0
   -3.0880   -5.8070   58.2420 C   0  0  0  0  0  0  0  0  0  0  0  0
   -4.3220   -5.8390   58.9140 C   0  0  0  0  0  0  0  0  0  0  0  0
   -5.4370   -5.1150   58.4150 C   0  0  0  0  0  0  0  0  0  0  0  0
   -6.6830   -5.1200   59.0580 O   0  0  0  0  0  0  0  0  0  0  0  0
   -6.9000   -4.6740   60.3920 C   0  0  0  0  0  0  0  0  0  0  0  0
   -5.3010   -4.3600   57.2360 C   0  0  0  0  0  0  0  0  0  0  0  0
   -4.0680   -4.3480   56.5910 C   0  0  0  0  0  0  0  0  0  0  0  0
   -3.6290   -3.5460   55.1840 S   0  0  0  0  0  0  0  0  0  0  0  0
   -0.3860   -2.5700   51.4570 N   0  0  0  0  0  0  0  0  0  0  0  0
   -3.5628   -1.8494   51.0745 H   0  0  0  0  0  0  0  0  0  0  0  0
   -4.4004   -1.5132   49.5215 H   0  0  0  0  0  0  0  0  0  0  0  0
   -2.8082   -2.3447   49.5215 H   0  0  0  0  0  0  0  0  0  0  0  0
   -2.3768   -0.0669   48.8961 H   0  0  0  0  0  0  0  0  0  0  0  0
   -3.4258    0.5564   50.2316 H   0  0  0  0  0  0  0  0  0  0  0  0
   -1.5037    0.7899   51.3969 H   0  0  0  0  0  0  0  0  0  0  0  0
   -1.5787   -1.0061   51.5828 H   0  0  0  0  0  0  0  0  0  0  0  0
    2.5661   -4.5101   49.9718 H   0  0  0  0  0  0  0  0  0  0  0  0
   -0.2380   -3.2470   54.5770 H   0  0  0  0  0  0  0  0  0  0  0  0
   -2.2248   -6.3678   58.6299 H   0  0  0  0  0  0  0  0  0  0  0  0
   -4.4251   -6.4307   59.8356 H   0  0  0  0  0  0  0  0  0  0  0  0
   -6.5306   -5.4332   61.0971 H   0  0  0  0  0  0  0  0  0  0  0  0
   -6.3609   -3.7291   60.5550 H   0  0  0  0  0  0  0  0  0  0  0  0
   -7.9762   -4.5150   60.5550 H   0  0  0  0  0  0  0  0  0  0  0  0
   -6.1515   -3.7910   56.8323 H   0  0  0  0  0  0  0  0  0  0  0  0
  1  2  1  0
  2  3  1  0
  3  4  1  0
  4  5  1  0
  5  6  2  0
  6  7  1  0
  7  8  2  0
  8  9  1  0
  8 10  1  0
 10 11  1  0
 11 12  2  0
 11 13  1  0
 13 14  1  0
 14 15  2  0
 15 16  1  0
 16 17  2  0
 17 18  1  0
 18 19  2  0
 19 20  1  0
 20 21  1  0
 19 22  1  0
 22 23  2  0
 23 24  1  0
 10 25  2  0
 25  5  1  0
 24 14  1  0
 23 16  1  0
  1 26  1  0
  1 27  1  0
  1 28  1  0
  2 29  1  0
  2 30  1  0
  3 31  1  0
  3 32  1  0
  7 33  1  0
 13 34  1  0
 17 35  1  0
 18 36  1  0
 21 37  1  0
 21 38  1  0
 21 39  1  0
 22 40  1  0
M  END
>  <meeko>  (3) 
{"is_sidechain": [false], "free_energy": -5.488, "intermolecular_energy": -7.354, "internal_energy": -0.59}

$$$$
ligand-2BMF
     RDKit          3D

 40 42  0  0  0  0  0  0  0  0999 V2000
    1.3000    5.2820   57.0830 C   0  0  0  0  0  0  0  0  0  0  0  0
    0.3640    4.7400   56.0070 C   0  0  0  0  0  0  0  0  0  0  0  0
    0.2180    5.7330   54.8510 C   0  0  0  0  0  0  0  0  0  0  0  0
    1.1660    5.1790   53.3910 S   0  0  0  0  0  0  0  0  0  0  0  0
    0.9600    3.4310   53.7260 C   0  0  0  0  0  0  0  0  0  0  0  0
    1.9320    2.7450   54.3780 N   0  0  0  0  0  0  0  0  0  0  0  0
    1.7900    1.4220   54.6460 C   0  0  0  0  0  0  0  0  0  0  0  0
    0.6380    0.7430   54.2430 C   0  0  0  0  0  0  0  0  0  0  0  0
    0.4430   -0.9420   54.7170 Cl  0  0  0  0  0  0  0  0  0  0  0  0
   -0.3510    1.4630   53.5410 C   0  0  0  0  0  0  0  0  0  0  0  0
   -1.5990    0.8410   53.0630 C   0  0  0  0  0  0  0  0  0  0  0  0
   -2.7010    1.2940   53.4750 O   0  0  0  0  0  0  0  0  0  0  0  0
   -1.5710   -0.2080   52.0810 N   0  0  0  0  0  0  0  0  0  0  0  0
   -2.7040   -1.0260   51.7630 C   0  0  0  0  0  0  0  0  0  0  0  0
   -2.8880   -2.2810   52.2420 N   0  0  0  0  0  0  0  0  0  0  0  0
   -4.0350   -2.8170   51.7550 C   0  0  0  0  0  0  0  0  0  0  0  0
   -4.5020   -4.0940   52.0660 C   0  0  0  0  0  0  0  0  0  0  0  0
   -5.7060   -4.5340   51.4910 C   0  0  0  0  0  0  0  0  0  0  0  0
   -6.4360   -3.6950   50.6090 C   0  0  0  0  0  0  0  0  0  0  0  0
   -7.6420   -4.0980   50.0170 O   0  0  0  0  0  0  0  0  0  0  0  0
   -8.0810   -5.4490   49.9300 C   0  0  0  0  0  0  0  0  0  0  0  0
   -5.9460   -2.4110   50.3100 C   0  0  0  0  0  0  0  0  0  0  0  0
   -4.7500   -2.0020   50.8940 C   0  0  0  0  0  0  0  0  0  0  0  0
   -3.9430   -0.5420   50.7140 S   0  0  0  0  0  0  0  0  0  0  0  0
   -0.1650    2.7910   53.3140 N   0  0  0  0  0  0  0  0  0  0  0  0
    0.8920    5.0457   58.0768 H   0  0  0  0  0  0  0  0  0  0  0  0
    2.2915    4.8183   56.9740 H   0  0  0  0  0  0  0  0  0  0  0  0
    1.3914    6.3728   56.9740 H   0  0  0  0  0  0  0  0  0  0  0  0
    0.7718    3.7949   55.6192 H   0  0  0  0  0  0  0  0  0  0  0  0
   -0.6273    4.5787   56.4557 H   0  0  0  0  0  0  0  0  0  0  0  0
   -0.8448    5.8161   54.5798 H   0  0  0  0  0  0  0  0  0  0  0  0
    0.6098    6.7086   55.1745 H   0  0  0  0  0  0  0  0  0  0  0  0
    2.5848    0.8829   55.1823 H   0  0  0  0  0  0  0  0  0  0  0  0
   -0.6900   -0.3690   51.5440 H   0  0  0  0  0  0  0  0  0  0  0  0
   -3.9375   -4.7452   52.7495 H   0  0  0  0  0  0  0  0  0  0  0  0
   -6.0868   -5.5387   51.7267 H   0  0  0  0  0  0  0  0  0  0  0  0
   -8.2137   -5.8574   50.9427 H   0  0  0  0  0  0  0  0  0  0  0  0
   -9.0385   -5.4894   49.3900 H   0  0  0  0  0  0  0  0  0  0  0  0
   -7.3301   -6.0445   49.3900 H   0  0  0  0  0  0  0  0  0  0  0  0
   -6.4958   -1.7442   49.6294 H   0  0  0  0  0  0  0  0  0  0  0  0
  1  2  1  0
  2  3  1  0
  3  4  1  0
  4  5  1  0
  5  6  2  0
  6  7  1  0
  7  8  2  0
  8  9  1  0
  8 10  1  0
 10 11  1  0
 11 12  2  0
 11 13  1  0
 13 14  1  0
 14 15  2  0
 15 16  1  0
 16 17  2  0
 17 18  1  0
 18 19  2  0
 19 20  1  0
 20 21  1  0
 19 22  1  0
 22 23  2  0
 23 24  1  0
 10 25  2  0
 25  5  1  0
 24 14  1  0
 23 16  1  0
  1 26  1  0
  1 27  1  0
  1 28  1  0
  2 29  1  0
  2 30  1  0
  3 31  1  0
  3 32  1  0
  7 33  1  0
 13 34  1  0
 17 35  1  0
 18 36  1  0
 21 37  1  0
 21 38  1  0
 21 39  1  0
 22 40  1  0
M  END
>  <meeko>  (4) 
{"is_sidechain": [false], "free_energy": -5.451, "intermolecular_energy": -7.811, "internal_energy": -0.083}

$$$$
ligand-2BMF
     RDKit          3D

 40 42  0  0  0  0  0  0  0  0999 V2000
   -5.6880   -4.1060   60.1090 C   0  0  0  0  0  0  0  0  0  0  0  0
   -6.3540   -4.5280   58.8040 C   0  0  0  0  0  0  0  0  0  0  0  0
   -5.4710   -5.5060   58.0230 C   0  0  0  0  0  0  0  0  0  0  0  0
   -3.7250   -4.9670   58.0450 S   0  0  0  0  0  0  0  0  0  0  0  0
   -3.6980   -4.4550   56.3290 C   0  0  0  0  0  0  0  0  0  0  0  0
   -4.4260   -5.1330   55.4060 N   0  0  0  0  0  0  0  0  0  0  0  0
   -4.4230   -4.7550   54.1030 C   0  0  0  0  0  0  0  0  0  0  0  0
   -3.6600   -3.6620   53.6890 C   0  0  0  0  0  0  0  0  0  0  0  0
   -3.7800   -3.1330   52.0140 Cl  0  0  0  0  0  0  0  0  0  0  0  0
   -2.8870   -2.9830   54.6540 C   0  0  0  0  0  0  0  0  0  0  0  0
   -2.0390   -1.8240   54.3240 C   0  0  0  0  0  0  0  0  0  0  0  0
   -0.7870   -1.9700   54.3120 O   0  0  0  0  0  0  0  0  0  0  0  0
   -2.6230   -0.5690   53.9390 N   0  0  0  0  0  0  0  0  0  0  0  0
   -1.8850    0.6560   53.8560 C   0  0  0  0  0  0  0  0  0  0  0  0
   -1.8770    1.6010   54.8290 N   0  0  0  0  0  0  0  0  0  0  0  0
   -1.1090    2.6590   54.4640 C   0  0  0  0  0  0  0  0  0  0  0  0
   -0.8990    3.7890   55.2540 C   0  0  0  0  0  0  0  0  0  0  0  0
   -0.0820    4.8190   54.7590 C   0  0  0  0  0  0  0  0  0  0  0  0
    0.5210    4.7130   53.4770 C   0  0  0  0  0  0  0  0  0  0  0  0
    1.3440    5.7190   52.9500 O   0  0  0  0  0  0  0  0  0  0  0  0
    1.8650    5.7180   51.6250 C   0  0  0  0  0  0  0  0  0  0  0  0
    0.2950    3.5630   52.6990 C   0  0  0  0  0  0  0  0  0  0  0  0
   -0.5190    2.5590   53.2150 C   0  0  0  0  0  0  0  0  0  0  0  0
   -0.9550    1.1000   52.5110 S   0  0  0  0  0  0  0  0  0  0  0  0
   -2.9390   -3.3940   55.9500 N   0  0  0  0  0  0  0  0  0  0  0  0
   -6.2776   -4.4796   60.9591 H   0  0  0  0  0  0  0  0  0  0  0  0
   -4.6722   -4.5256   60.1547 H   0  0  0  0  0  0  0  0  0  0  0  0
   -5.6336   -3.0083   60.1547 H   0  0  0  0  0  0  0  0  0  0  0  0
   -7.3139   -5.0145   59.0319 H   0  0  0  0  0  0  0  0  0  0  0  0
   -6.5109   -3.6311   58.1869 H   0  0  0  0  0  0  0  0  0  0  0  0
   -5.5459   -6.5034   58.4807 H   0  0  0  0  0  0  0  0  0  0  0  0
   -5.8169   -5.5357   56.9792 H   0  0  0  0  0  0  0  0  0  0  0  0
   -5.0244   -5.3123   53.3697 H   0  0  0  0  0  0  0  0  0  0  0  0
   -3.6340   -0.5460   53.6740 H   0  0  0  0  0  0  0  0  0  0  0  0
   -1.3648    3.8722   56.2470 H   0  0  0  0  0  0  0  0  0  0  0  0
    0.0926    5.7167   55.3702 H   0  0  0  0  0  0  0  0  0  0  0  0
    2.9643    5.7159   51.6633 H   0  0  0  0  0  0  0  0  0  0  0  0
    1.5149    4.8205   51.0940 H   0  0  0  0  0  0  0  0  0  0  0  0
    1.5183    6.6168   51.0940 H   0  0  0  0  0  0  0  0  0  0  0  0
    0.7520    3.4595   51.7038 H   0  0  0  0  0  0  0  0  0  0  0  0
  1  2  1  0
  2  3  1  0
  3  4  1  0
  4  5  1  0
  5  6  2  0
  6  7  1  0
  7  8  2  0
  8  9  1  0
  8 10  1  0
 10 11  1  0
 11 12  2  0
 11 13  1  0
 13 14  1  0
 14 15  2  0
 15 16  1  0
 16 17  2  0
 17 18  1  0
 18 19  2  0
 19 20  1  0
 20 21  1  0
 19 22  1  0
 22 23  2  0
 23 24  1  0
 10 25  2  0
 25  5  1  0
 24 14  1  0
 23 16  1  0
  1 26  1  0
  1 27  1  0
  1 28  1  0
  2 29  1  0
  2 30  1  0
  3 31  1  0
  3 32  1  0
  7 33  1  0
 13 34  1  0
 17 35  1  0
 18 36  1  0
 21 37  1  0
 21 38  1  0
 21 39  1  0
 22 40  1  0
M  END
>  <meeko>  (5) 
{"is_sidechain": [false], "free_energy": -5.434, "intermolecular_energy": -7.391, "internal_energy": -0.481}

$$$$
ligand-2BMF
     RDKit          3D

 40 42  0  0  0  0  0  0  0  0999 V2000
   -7.7770   -4.6750   50.0850 C   0  0  0  0  0  0  0  0  0  0  0  0
   -7.7260   -5.4030   51.4240 C   0  0  0  0  0  0  0  0  0  0  0  0
   -6.4190   -5.1060   52.1650 C   0  0  0  0  0  0  0  0  0  0  0  0
   -5.0860   -4.6820   50.9910 S   0  0  0  0  0  0  0  0  0  0  0  0
   -3.7880   -4.6750   52.2250 C   0  0  0  0  0  0  0  0  0  0  0  0
   -3.1380   -5.8250   52.5350 N   0  0  0  0  0  0  0  0  0  0  0  0
   -2.1470   -5.8360   53.4620 C   0  0  0  0  0  0  0  0  0  0  0  0
   -1.7870   -4.6590   54.1210 C   0  0  0  0  0  0  0  0  0  0  0  0
   -0.4170   -4.6960   55.2270 Cl  0  0  0  0  0  0  0  0  0  0  0  0
   -2.4900   -3.4770   53.8090 C   0  0  0  0  0  0  0  0  0  0  0  0
   -2.1970   -2.1830   54.4520 C   0  0  0  0  0  0  0  0  0  0  0  0
   -3.0490   -1.6870   55.2370 O   0  0  0  0  0  0  0  0  0  0  0  0
   -0.9300   -1.5340   54.2580 N   0  0  0  0  0  0  0  0  0  0  0  0
   -0.6700   -0.1750   54.6320 C   0  0  0  0  0  0  0  0  0  0  0  0
   -1.5270    0.8500   54.3980 N   0  0  0  0  0  0  0  0  0  0  0  0
   -1.0070    2.0210   54.8430 C   0  0  0  0  0  0  0  0  0  0  0  0
   -1.6500    3.2550   54.7480 C   0  0  0  0  0  0  0  0  0  0  0  0
   -1.0010    4.3980   55.2450 C   0  0  0  0  0  0  0  0  0  0  0  0
    0.2880    4.3000   55.8340 C   0  0  0  0  0  0  0  0  0  0  0  0
    0.9670    5.4170   56.3420 O   0  0  0  0  0  0  0  0  0  0  0  0
    1.7470    5.4090   57.5320 C   0  0  0  0  0  0  0  0  0  0  0  0
    0.9170    3.0450   55.9180 C   0  0  0  0  0  0  0  0  0  0  0  0
    0.2500    1.9310   55.4170 C   0  0  0  0  0  0  0  0  0  0  0  0
    0.7600    0.3320   55.3840 S   0  0  0  0  0  0  0  0  0  0  0  0
   -3.4630   -3.5190   52.8600 N   0  0  0  0  0  0  0  0  0  0  0  0
   -7.8529   -3.5916   50.2594 H   0  0  0  0  0  0  0  0  0  0  0  0
   -6.8615   -4.8914   49.5149 H   0  0  0  0  0  0  0  0  0  0  0  0
   -8.6534   -5.0169   49.5149 H   0  0  0  0  0  0  0  0  0  0  0  0
   -8.5730   -5.0740   52.0440 H   0  0  0  0  0  0  0  0  0  0  0  0
   -7.7817   -6.4852   51.2350 H   0  0  0  0  0  0  0  0  0  0  0  0
   -6.5777   -4.2604   52.8504 H   0  0  0  0  0  0  0  0  0  0  0  0
   -6.1210   -6.0043   52.7256 H   0  0  0  0  0  0  0  0  0  0  0  0
   -1.6253   -6.7759   53.6951 H   0  0  0  0  0  0  0  0  0  0  0  0
   -0.1410   -2.0840   53.8510 H   0  0  0  0  0  0  0  0  0  0  0  0
   -2.6480    3.3322   54.2919 H   0  0  0  0  0  0  0  0  0  0  0  0
   -1.4959    5.3781   55.1773 H   0  0  0  0  0  0  0  0  0  0  0  0
    1.0807    5.4158   58.4072 H   0  0  0  0  0  0  0  0  0  0  0  0
    2.3724    4.5044   57.5544 H   0  0  0  0  0  0  0  0  0  0  0  0
    2.3909    6.3006   57.5544 H   0  0  0  0  0  0  0  0  0  0  0  0
    1.9149    2.9460   56.3701 H   0  0  0  0  0  0  0  0  0  0  0  0
  1  2  1  0
  2  3  1  0
  3  4  1  0
  4  5  1  0
  5  6  2  0
  6  7  1  0
  7  8  2  0
  8  9  1  0
  8 10  1  0
 10 11  1  0
 11 12  2  0
 11 13  1  0
 13 14  1  0
 14 15  2  0
 15 16  1  0
 16 17  2  0
 17 18  1  0
 18 19  2  0
 19 20  1  0
 20 21  1  0
 19 22  1  0
 22 23  2  0
 23 24  1  0
 10 25  2  0
 25  5  1  0
 24 14  1  0
 23 16  1  0
  1 26  1  0
  1 27  1  0
  1 28  1  0
  2 29  1  0
  2 30  1  0
  3 31  1  0
  3 32  1  0
  7 33  1  0
 13 34  1  0
 17 35  1  0
 18 36  1  0
 21 37  1  0
 21 38  1  0
 21 39  1  0
 22 40  1  0
M  END
>  <meeko>  (6) 
{"is_sidechain": [false], "free_energy": -5.311, "intermolecular_energy": -7.467, "internal_energy": -0.238}

$$$$
ligand-2BMF
     RDKit          3D

 40 42  0  0  0  0  0  0  0  0999 V2000
    1.8200    1.3420   55.1170 C   0  0  0  0  0  0  0  0  0  0  0  0
    1.2630    2.0740   56.3340 C   0  0  0  0  0  0  0  0  0  0  0  0
    1.7300    3.5320   56.3640 C   0  0  0  0  0  0  0  0  0  0  0  0
    0.3110    4.6740   56.2310 S   0  0  0  0  0  0  0  0  0  0  0  0
    0.3130    4.7170   54.4400 C   0  0  0  0  0  0  0  0  0  0  0  0
    1.1720    5.5350   53.7810 N   0  0  0  0  0  0  0  0  0  0  0  0
    1.1930    5.5760   52.4250 C   0  0  0  0  0  0  0  0  0  0  0  0
    0.3170    4.7790   51.6850 C   0  0  0  0  0  0  0  0  0  0  0  0
    0.4600    4.7740   49.9300 Cl  0  0  0  0  0  0  0  0  0  0  0  0
   -0.5900    3.9550   52.3830 C   0  0  0  0  0  0  0  0  0  0  0  0
   -1.5620    3.0820   51.7000 C   0  0  0  0  0  0  0  0  0  0  0  0
   -2.2180    3.5460   50.7280 O   0  0  0  0  0  0  0  0  0  0  0  0
   -1.7050    1.7030   52.0740 N   0  0  0  0  0  0  0  0  0  0  0  0
   -2.7890    0.8720   51.6420 C   0  0  0  0  0  0  0  0  0  0  0  0
   -4.0350    1.3360   51.3740 N   0  0  0  0  0  0  0  0  0  0  0  0
   -4.8570    0.3210   51.0060 C   0  0  0  0  0  0  0  0  0  0  0  0
   -6.2000    0.4780   50.6650 C   0  0  0  0  0  0  0  0  0  0  0  0
   -6.9450   -0.6570   50.3040 C   0  0  0  0  0  0  0  0  0  0  0  0
   -6.3420   -1.9430   50.2860 C   0  0  0  0  0  0  0  0  0  0  0  0
   -7.0520   -3.0990   49.9300 O   0  0  0  0  0  0  0  0  0  0  0  0
   -7.2320   -4.2250   50.7810 C   0  0  0  0  0  0  0  0  0  0  0  0
   -4.9860   -2.0770   50.6340 C   0  0  0  0  0  0  0  0  0  0  0  0
   -4.2730   -0.9350   50.9880 C   0  0  0  0  0  0  0  0  0  0  0  0
   -2.6640   -0.8050   51.4440 S   0  0  0  0  0  0  0  0  0  0  0  0
   -0.5560    3.9400   53.7430 N   0  0  0  0  0  0  0  0  0  0  0  0
    2.4549    0.5076   55.4498 H   0  0  0  0  0  0  0  0  0  0  0  0
    0.9886    0.9514   54.5118 H   0  0  0  0  0  0  0  0  0  0  0  0
    2.4181    2.0391   54.5118 H   0  0  0  0  0  0  0  0  0  0  0  0
    0.1639    2.0499   56.2954 H   0  0  0  0  0  0  0  0  0  0  0  0
    1.6300    1.5716   57.2411 H   0  0  0  0  0  0  0  0  0  0  0  0
    2.2575    3.7218   57.3104 H   0  0  0  0  0  0  0  0  0  0  0  0
    2.4006    3.7038   55.5091 H   0  0  0  0  0  0  0  0  0  0  0  0
    1.9019    6.2388   51.9072 H   0  0  0  0  0  0  0  0  0  0  0  0
   -0.9650    1.2650   52.6680 H   0  0  0  0  0  0  0  0  0  0  0  0
   -6.6680    1.4734   50.6784 H   0  0  0  0  0  0  0  0  0  0  0  0
   -8.0055   -0.5488   50.0327 H   0  0  0  0  0  0  0  0  0  0  0  0
   -7.1805   -3.9027   51.8314 H   0  0  0  0  0  0  0  0  0  0  0  0
   -8.2142   -4.6796   50.5847 H   0  0  0  0  0  0  0  0  0  0  0  0
   -6.4405   -4.9632   50.5847 H   0  0  0  0  0  0  0  0  0  0  0  0
   -4.4991   -3.0633   50.6266 H   0  0  0  0  0  0  0  0  0  0  0  0
  1  2  1  0
  2  3  1  0
  3  4  1  0
  4  5  1  0
  5  6  2  0
  6  7  1  0
  7  8  2  0
  8  9  1  0
  8 10  1  0
 10 11  1  0
 11 12  2  0
 11 13  1  0
 13 14  1  0
 14 15  2  0
 15 16  1  0
 16 17  2  0
 17 18  1  0
 18 19  2  0
 19 20  1  0
 20 21  1  0
 19 22  1  0
 22 23  2  0
 23 24  1  0
 10 25  2  0
 25  5  1  0
 24 14  1  0
 23 16  1  0
  1 26  1  0
  1 27  1  0
  1 28  1  0
  2 29  1  0
  2 30  1  0
  3 31  1  0
  3 32  1  0
  7 33  1  0
 13 34  1  0
 17 35  1  0
 18 36  1  0
 21 37  1  0
 21 38  1  0
 21 39  1  0
 22 40  1  0
M  END
>  <meeko>  (7) 
{"is_sidechain": [false], "free_energy": -5.301, "intermolecular_energy": -7.545, "internal_energy": -0.146}

$$$$
ligand-2BMF
     RDKit          3D

 40 42  0  0  0  0  0  0  0  0999 V2000
   -2.8570   -5.1140   54.7620 C   0  0  0  0  0  0  0  0  0  0  0  0
   -2.0950   -5.8570   53.6680 C   0  0  0  0  0  0  0  0  0  0  0  0
   -2.6260   -5.4910   52.2790 C   0  0  0  0  0  0  0  0  0  0  0  0
   -4.4490   -5.6010   52.2290 S   0  0  0  0  0  0  0  0  0  0  0  0
   -4.6900   -3.9330   51.6230 C   0  0  0  0  0  0  0  0  0  0  0  0
   -5.7310   -3.6530   50.7990 N   0  0  0  0  0  0  0  0  0  0  0  0
   -5.9330   -2.3940   50.3360 C   0  0  0  0  0  0  0  0  0  0  0  0
   -5.0600   -1.3650   50.6940 C   0  0  0  0  0  0  0  0  0  0  0  0
   -5.4290    0.2750   50.1680 Cl  0  0  0  0  0  0  0  0  0  0  0  0
   -3.9670   -1.6760   51.5280 C   0  0  0  0  0  0  0  0  0  0  0  0
   -2.9810   -0.6670   51.9590 C   0  0  0  0  0  0  0  0  0  0  0  0
   -1.9630   -0.4680   51.2430 O   0  0  0  0  0  0  0  0  0  0  0  0
   -3.2120    0.1360   53.1270 N   0  0  0  0  0  0  0  0  0  0  0  0
   -2.2010    0.9420   53.7460 C   0  0  0  0  0  0  0  0  0  0  0  0
   -1.1680    0.4370   54.4650 N   0  0  0  0  0  0  0  0  0  0  0  0
   -0.3850    1.4350   54.9470 C   0  0  0  0  0  0  0  0  0  0  0  0
    0.7570    1.2360   55.7210 C   0  0  0  0  0  0  0  0  0  0  0  0
    1.4810    2.3570   56.1620 C   0  0  0  0  0  0  0  0  0  0  0  0
    1.0580    3.6700   55.8250 C   0  0  0  0  0  0  0  0  0  0  0  0
    1.7540    4.8130   56.2440 O   0  0  0  0  0  0  0  0  0  0  0  0
    1.5560    5.4600   57.4960 C   0  0  0  0  0  0  0  0  0  0  0  0
   -0.0980    3.8460   55.0420 C   0  0  0  0  0  0  0  0  0  0  0  0
   -0.7950    2.7170   54.6210 C   0  0  0  0  0  0  0  0  0  0  0  0
   -2.1890    2.6350   53.6910 S   0  0  0  0  0  0  0  0  0  0  0  0
   -3.8210   -2.9520   51.9780 N   0  0  0  0  0  0  0  0  0  0  0  0
   -2.5078   -5.4545   55.7480 H   0  0  0  0  0  0  0  0  0  0  0  0
   -2.6792   -4.0330   54.6632 H   0  0  0  0  0  0  0  0  0  0  0  0
   -3.9332   -5.3191   54.6632 H   0  0  0  0  0  0  0  0  0  0  0  0
   -1.0297   -5.5893   53.7272 H   0  0  0  0  0  0  0  0  0  0  0  0
   -2.2315   -6.9378   53.8201 H   0  0  0  0  0  0  0  0  0  0  0  0
   -2.3203   -4.4627   52.0359 H   0  0  0  0  0  0  0  0  0  0  0  0
   -2.2107   -6.1983   51.5461 H   0  0  0  0  0  0  0  0  0  0  0  0
   -6.7876   -2.1831   49.6762 H   0  0  0  0  0  0  0  0  0  0  0  0
   -4.1730    0.1650   53.5350 H   0  0  0  0  0  0  0  0  0  0  0  0
    1.0859    0.2193   55.9821 H   0  0  0  0  0  0  0  0  0  0  0  0
    2.3840    2.2159   56.7741 H   0  0  0  0  0  0  0  0  0  0  0  0
    1.7720    4.7543   58.3116 H   0  0  0  0  0  0  0  0  0  0  0  0
    2.2303    6.3257   57.5720 H   0  0  0  0  0  0  0  0  0  0  0  0
    0.5127    5.8001   57.5720 H   0  0  0  0  0  0  0  0  0  0  0  0
   -0.4433    4.8540   54.7686 H   0  0  0  0  0  0  0  0  0  0  0  0
  1  2  1  0
  2  3  1  0
  3  4  1  0
  4  5  1  0
  5  6  2  0
  6  7  1  0
  7  8  2  0
  8  9  1  0
  8 10  1  0
 10 11  1  0
 11 12  2  0
 11 13  1  0
 13 14  1  0
 14 15  2  0
 15 16  1  0
 16 17  2  0
 17 18  1  0
 18 19  2  0
 19 20  1  0
 20 21  1  0
 19 22  1  0
 22 23  2  0
 23 24  1  0
 10 25  2  0
 25  5  1  0
 24 14  1  0
 23 16  1  0
  1 26  1  0
  1 27  1  0
  1 28  1  0
  2 29  1  0
  2 30  1  0
  3 31  1  0
  3 32  1  0
  7 33  1  0
 13 34  1  0
 17 35  1  0
 18 36  1  0
 21 37  1  0
 21 38  1  0
 21 39  1  0
 22 40  1  0
M  END
>  <meeko>  (8) 
{"is_sidechain": [false], "free_energy": -5.286, "intermolecular_energy": -7.027, "internal_energy": -0.644}

$$$$
ligand-2BMF
     RDKit          3D

 40 42  0  0  0  0  0  0  0  0999 V2000
    1.4740    4.8810   50.4080 C   0  0  0  0  0  0  0  0  0  0  0  0
    0.6210    5.0770   51.6560 C   0  0  0  0  0  0  0  0  0  0  0  0
    1.4690    5.5580   52.8360 C   0  0  0  0  0  0  0  0  0  0  0  0
    0.4680    5.6620   54.3600 S   0  0  0  0  0  0  0  0  0  0  0  0
    0.6570    3.9340   54.7900 C   0  0  0  0  0  0  0  0  0  0  0  0
    1.7560    3.5200   55.4710 N   0  0  0  0  0  0  0  0  0  0  0  0
    1.9130    2.2160   55.8110 C   0  0  0  0  0  0  0  0  0  0  0  0
    0.9450    1.2740   55.4550 C   0  0  0  0  0  0  0  0  0  0  0  0
    1.1300   -0.3830   56.0210 Cl  0  0  0  0  0  0  0  0  0  0  0  0
   -0.1780    1.7150   54.7240 C   0  0  0  0  0  0  0  0  0  0  0  0
   -1.2530    0.8030   54.2900 C   0  0  0  0  0  0  0  0  0  0  0  0
   -2.4130    0.9670   54.7550 O   0  0  0  0  0  0  0  0  0  0  0  0
   -1.0100   -0.2020   53.2940 N   0  0  0  0  0  0  0  0  0  0  0  0
   -1.9170   -1.2750   53.0120 C   0  0  0  0  0  0  0  0  0  0  0  0
   -1.8660   -2.4860   53.6200 N   0  0  0  0  0  0  0  0  0  0  0  0
   -2.8350   -3.3060   53.1380 C   0  0  0  0  0  0  0  0  0  0  0  0
   -3.0420   -4.6170   53.5660 C   0  0  0  0  0  0  0  0  0  0  0  0
   -4.0800   -5.3640   52.9850 C   0  0  0  0  0  0  0  0  0  0  0  0
   -4.9050   -4.7950   51.9790 C   0  0  0  0  0  0  0  0  0  0  0  0
   -5.9520   -5.5070   51.3760 O   0  0  0  0  0  0  0  0  0  0  0  0
   -7.3050   -5.0670   51.3370 C   0  0  0  0  0  0  0  0  0  0  0  0
   -4.6780   -3.4710   51.5630 C   0  0  0  0  0  0  0  0  0  0  0  0
   -3.6410   -2.7550   52.1570 C   0  0  0  0  0  0  0  0  0  0  0  0
   -3.1500   -1.1790   51.8560 S   0  0  0  0  0  0  0  0  0  0  0  0
   -0.2940    3.0360   54.4240 N   0  0  0  0  0  0  0  0  0  0  0  0
    2.5067    4.6437   50.7033 H   0  0  0  0  0  0  0  0  0  0  0  0
    1.0643    4.0536   49.8101 H   0  0  0  0  0  0  0  0  0  0  0  0
    1.4666    5.8043   49.8101 H   0  0  0  0  0  0  0  0  0  0  0  0
   -0.1572    5.8252   51.4448 H   0  0  0  0  0  0  0  0  0  0  0  0
    0.1679    4.1110   51.9235 H   0  0  0  0  0  0  0  0  0  0  0  0
    2.2965    4.8512   52.9964 H   0  0  0  0  0  0  0  0  0  0  0  0
    1.8586    6.5599   52.6029 H   0  0  0  0  0  0  0  0  0  0  0  0
    2.8063    1.8993   56.3693 H   0  0  0  0  0  0  0  0  0  0  0  0
   -0.1410   -0.1370   52.7170 H   0  0  0  0  0  0  0  0  0  0  0  0
   -2.4034   -5.0585   54.3452 H   0  0  0  0  0  0  0  0  0  0  0  0
   -4.2554   -6.3994   53.3123 H   0  0  0  0  0  0  0  0  0  0  0  0
   -7.6806   -4.9449   52.3637 H   0  0  0  0  0  0  0  0  0  0  0  0
   -7.3623   -4.1039   50.8086 H   0  0  0  0  0  0  0  0  0  0  0  0
   -7.9178   -5.8122   50.8086 H   0  0  0  0  0  0  0  0  0  0  0  0
   -5.3055   -3.0107   50.7856 H   0  0  0  0  0  0  0  0  0  0  0  0
  1  2  1  0
  2  3  1  0
  3  4  1  0
  4  5  1  0
  5  6  2  0
  6  7  1  0
  7  8  2  0
  8  9  1  0
  8 10  1  0
 10 11  1  0
 11 12  2  0
 11 13  1  0
 13 14  1  0
 14 15  2  0
 15 16  1  0
 16 17  2  0
 17 18  1  0
 18 19  2  0
 19 20  1  0
 20 21  1  0
 19 22  1  0
 22 23  2  0
 23 24  1  0
 10 25  2  0
 25  5  1  0
 24 14  1  0
 23 16  1  0
  1 26  1  0
  1 27  1  0
  1 28  1  0
  2 29  1  0
  2 30  1  0
  3 31  1  0
  3 32  1  0
  7 33  1  0
 13 34  1  0
 17 35  1  0
 18 36  1  0
 21 37  1  0
 21 38  1  0
 21 39  1  0
 22 40  1  0
M  END
>  <meeko>  (9) 
{"is_sidechain": [false], "free_energy": -5.282, "intermolecular_energy": -7.142, "internal_energy": -0.523}

$$$$
ligand-2BMF
     RDKit          3D

 40 42  0  0  0  0  0  0  0  0999 V2000
    1.9080    2.7520   51.1980 C   0  0  0  0  0  0  0  0  0  0  0  0
    0.8220    1.6820   51.2630 C   0  0  0  0  0  0  0  0  0  0  0  0
    1.4280    0.2930   51.4860 C   0  0  0  0  0  0  0  0  0  0  0  0
    1.3300   -0.7120   49.9630 S   0  0  0  0  0  0  0  0  0  0  0  0
    1.2820   -2.2850   50.8180 C   0  0  0  0  0  0  0  0  0  0  0  0
    1.8390   -3.3850   50.2500 N   0  0  0  0  0  0  0  0  0  0  0  0
    1.8170   -4.5830   50.8860 C   0  0  0  0  0  0  0  0  0  0  0  0
    1.2090   -4.7040   52.1370 C   0  0  0  0  0  0  0  0  0  0  0  0
    1.3100   -6.2480   52.9790 Cl  0  0  0  0  0  0  0  0  0  0  0  0
    0.6100   -3.5600   52.7020 C   0  0  0  0  0  0  0  0  0  0  0  0
   -0.0660   -3.5800   54.0130 C   0  0  0  0  0  0  0  0  0  0  0  0
    0.6060   -3.3220   55.0470 O   0  0  0  0  0  0  0  0  0  0  0  0
   -1.4820   -3.8060   54.1080 N   0  0  0  0  0  0  0  0  0  0  0  0
   -2.1570   -4.0930   55.3390 C   0  0  0  0  0  0  0  0  0  0  0  0
   -1.6640   -4.9170   56.2970 N   0  0  0  0  0  0  0  0  0  0  0  0
   -2.5280   -5.0140   57.3380 C   0  0  0  0  0  0  0  0  0  0  0  0
   -2.3050   -5.7850   58.4790 C   0  0  0  0  0  0  0  0  0  0  0  0
   -3.2820   -5.8020   59.4870 C   0  0  0  0  0  0  0  0  0  0  0  0
   -4.4780   -5.0490   59.3490 C   0  0  0  0  0  0  0  0  0  0  0  0
   -5.4760   -5.0400   60.3350 O   0  0  0  0  0  0  0  0  0  0  0  0
   -6.6110   -4.1800   60.3210 C   0  0  0  0  0  0  0  0  0  0  0  0
   -4.6820   -4.2790   58.1910 C   0  0  0  0  0  0  0  0  0  0  0  0
   -3.6960   -4.2810   57.2080 C   0  0  0  0  0  0  0  0  0  0  0  0
   -3.6780   -3.4660   55.7410 S   0  0  0  0  0  0  0  0  0  0  0  0
    0.6750   -2.3790   52.0290 N   0  0  0  0  0  0  0  0  0  0  0  0
    2.2004    3.0401   52.2185 H   0  0  0  0  0  0  0  0  0  0  0  0
    2.7836    2.3538   50.6643 H   0  0  0  0  0  0  0  0  0  0  0  0
    1.5229    3.6334   50.6643 H   0  0  0  0  0  0  0  0  0  0  0  0
    0.1391    1.9134   52.0937 H   0  0  0  0  0  0  0  0  0  0  0  0
    0.2795    1.6766   50.3061 H   0  0  0  0  0  0  0  0  0  0  0  0
    2.4828    0.4027   51.7781 H   0  0  0  0  0  0  0  0  0  0  0  0
    0.8609   -0.2150   52.2799 H   0  0  0  0  0  0  0  0  0  0  0  0
    2.2799   -5.4624   50.4144 H   0  0  0  0  0  0  0  0  0  0  0  0
   -2.0620   -3.7290   53.2430 H   0  0  0  0  0  0  0  0  0  0  0  0
   -1.3795   -6.3696   58.5870 H   0  0  0  0  0  0  0  0  0  0  0  0
   -3.1194   -6.4046   60.3928 H   0  0  0  0  0  0  0  0  0  0  0  0
   -6.9114   -3.9524   61.3544 H   0  0  0  0  0  0  0  0  0  0  0  0
   -6.3568   -3.2458   59.7989 H   0  0  0  0  0  0  0  0  0  0  0  0
   -7.4416   -4.6775   59.7989 H   0  0  0  0  0  0  0  0  0  0  0  0
   -5.6008   -3.6876   58.0641 H   0  0  0  0  0  0  0  0  0  0  0  0
  1  2  1  0
  2  3  1  0
  3  4  1  0
  4  5  1  0
  5  6  2  0
  6  7  1  0
  7  8  2  0
  8  9  1  0
  8 10  1  0
 10 11  1  0
 11 12  2  0
 11 13  1  0
 13 14  1  0
 14 15  2  0
 15 16  1  0
 16 17  2  0
 17 18  1  0
 18 19  2  0
 19 20  1  0
 20 21  1  0
 19 22  1  0
 22 23  2  0
 23 24  1  0
 10 25  2  0
 25  5  1  0
 24 14  1  0
 23 16  1  0
  1 26  1  0
  1 27  1  0
  1 28  1  0
  2 29  1  0
  2 30  1  0
  3 31  1  0
  3 32  1  0
  7 33  1  0
 13 34  1  0
 17 35  1  0
 18 36  1  0
 21 37  1  0
 21 38  1  0
 21 39  1  0
 22 40  1  0
M  END
>  <meeko>  (10) 
{"is_sidechain": [false], "free_energy": -5.237, "intermolecular_energy": -7.271, "internal_energy": -0.334}

$$$$
