MODEL 1
REMARK VINA RESULT:    -5.494      0.000      0.000
REMARK INTER + INTRA:          -8.034
REMARK INTER:                  -7.421
REMARK INTRA:                  -0.613
REMARK UNBOUND:                -0.613
REMARK SMILES CCCSc1ncc(Cl)c(C(=O)Nc2nc3ccc(OC)cc3s2)n1
REMARK SMILES IDX 5 1 6 2 7 3 8 4 10 5 25 6 9 7 4 8 3 9 2 10 1 11 11 12 12 13
REMARK SMILES IDX 13 14 14 16 15 17 24 18 16 19 23 20 17 21 22 22 18 23 19 24
REMARK SMILES IDX 20 25 21 26
REMARK H PARENT 13 15
ROOT
ATOM      1  C   UNL     1      -5.086  -4.168  51.783  1.00  0.00     0.188 A 
ATOM      2  N   UNL     1      -4.802  -5.483  51.960  1.00  0.00    -0.230 NA
ATOM      3  C   UNL     1      -3.813  -5.875  52.801  1.00  0.00     0.137 A 
ATOM      4  C   UNL     1      -3.075  -4.925  53.509  1.00  0.00     0.090 A 
ATOM      5  C   UNL     1      -3.399  -3.563  53.337  1.00  0.00     0.151 A 
ATOM      6  N   UNL     1      -4.390  -3.225  52.468  1.00  0.00    -0.216 NA
ATOM      7  Cl  UNL     1      -1.723  -5.471  54.497  1.00  0.00    -0.080 Cl
ENDROOT
BRANCH   1   8
ATOM      8  S   UNL     1      -6.391  -3.675  50.660  1.00  0.00    -0.086 SA
BRANCH   8   9
ATOM      9  C   UNL     1      -5.578  -2.123  50.143  1.00  0.00     0.078 C 
BRANCH   9  10
ATOM     10  C   UNL     1      -6.545  -0.941  50.240  1.00  0.00     0.008 C 
ATOM     11  C   UNL     1      -5.818   0.332  50.663  1.00  0.00     0.005 C 
ENDBRANCH   9  10
ENDBRANCH   8   9
ENDBRANCH   1   8
BRANCH   5  12
ATOM     12  C   UNL     1      -2.690  -2.480  54.043  1.00  0.00     0.277 C 
ATOM     13  O   UNL     1      -2.958  -2.267  55.256  1.00  0.00    -0.267 OA
ATOM     14  N   UNL     1      -1.651  -1.732  53.391  1.00  0.00    -0.296 N 
ATOM     15  H   UNL     1      -1.246  -2.105  52.503  1.00  0.00     0.172 HD
BRANCH  14  16
ATOM     16  C   UNL     1      -1.104  -0.516  53.913  1.00  0.00     0.190 A 
ATOM     17  N   UNL     1      -0.010  -0.462  54.714  1.00  0.00    -0.220 NA
ATOM     18  S   UNL     1      -1.775   1.013  53.627  1.00  0.00    -0.096 S 
ATOM     19  C   UNL     1       0.262   0.819  55.069  1.00  0.00     0.084 A 
ATOM     20  C   UNL     1      -0.607   1.771  54.563  1.00  0.00     0.060 A 
ATOM     21  C   UNL     1       1.327   1.201  55.886  1.00  0.00     0.034 A 
ATOM     22  C   UNL     1      -0.461   3.127  54.839  1.00  0.00     0.067 A 
ATOM     23  C   UNL     1       1.499   2.563  56.182  1.00  0.00     0.049 A 
ATOM     24  C   UNL     1       0.605   3.536  55.660  1.00  0.00     0.120 A 
BRANCH  24  25
ATOM     25  O   UNL     1       0.745   4.905  55.932  1.00  0.00    -0.497 OA
ATOM     26  C   UNL     1       0.476   5.941  54.995  1.00  0.00     0.278 C 
ENDBRANCH  24  25
ENDBRANCH  14  16
ENDBRANCH   5  12
TORSDOF 6
ENDMDL
MODEL 2
REMARK VINA RESULT:    -5.350      3.335      4.418
REMARK INTER + INTRA:          -7.840
REMARK INTER:                  -7.316
REMARK INTRA:                  -0.524
REMARK UNBOUND:                -0.613
REMARK SMILES CCCSc1ncc(Cl)c(C(=O)Nc2nc3ccc(OC)cc3s2)n1
REMARK SMILES IDX 5 1 6 2 7 3 8 4 10 5 25 6 9 7 4 8 3 9 2 10 1 11 11 12 12 13
REMARK SMILES IDX 13 14 14 16 15 17 24 18 16 19 23 20 17 21 22 22 18 23 19 24
REMARK SMILES IDX 20 25 21 26
REMARK H PARENT 13 15
ROOT
ATOM      1  C   UNL     1      -3.538  -4.495  56.403  1.00  0.00     0.188 A 
ATOM      2  N   UNL     1      -4.279  -5.185  55.500  1.00  0.00    -0.230 NA
ATOM      3  C   UNL     1      -4.311  -4.814  54.196  1.00  0.00     0.137 A 
ATOM      4  C   UNL     1      -3.570  -3.714  53.760  1.00  0.00     0.090 A 
ATOM      5  C   UNL     1      -2.782  -3.023  54.703  1.00  0.00     0.151 A 
ATOM      6  N   UNL     1      -2.800  -3.428  56.002  1.00  0.00    -0.216 NA
ATOM      7  Cl  UNL     1      -3.735  -3.195  52.085  1.00  0.00    -0.080 Cl
ENDROOT
BRANCH   1   8
ATOM      8  S   UNL     1      -3.520  -4.999  58.122  1.00  0.00    -0.086 SA
BRANCH   8   9
ATOM      9  C   UNL     1      -5.219  -5.668  58.110  1.00  0.00     0.078 C 
BRANCH   9  10
ATOM     10  C   UNL     1      -6.209  -4.658  58.698  1.00  0.00     0.008 C 
ATOM     11  C   UNL     1      -5.659  -4.028  59.974  1.00  0.00     0.005 C 
ENDBRANCH   9  10
ENDBRANCH   8   9
ENDBRANCH   1   8
BRANCH   5  12
ATOM     12  C   UNL     1      -1.955  -1.855  54.348  1.00  0.00     0.277 C 
ATOM     13  O   UNL     1      -0.703  -1.990  54.298  1.00  0.00    -0.267 OA
ATOM     14  N   UNL     1      -2.562  -0.606  53.982  1.00  0.00    -0.296 N 
ATOM     15  H   UNL     1      -3.581  -0.592  53.748  1.00  0.00     0.172 HD
BRANCH  14  16
ATOM     16  C   UNL     1      -1.838   0.627  53.877  1.00  0.00     0.190 A 
ATOM     17  N   UNL     1      -1.622   1.467  54.919  1.00  0.00    -0.220 NA
ATOM     18  S   UNL     1      -1.190   1.210  52.425  1.00  0.00    -0.096 S 
ATOM     19  C   UNL     1      -0.927   2.561  54.517  1.00  0.00     0.084 A 
ATOM     20  C   UNL     1      -0.601   2.593  53.171  1.00  0.00     0.060 A 
ATOM     21  C   UNL     1      -0.547   3.606  55.358  1.00  0.00     0.034 A 
ATOM     22  C   UNL     1       0.109   3.650  52.607  1.00  0.00     0.067 A 
ATOM     23  C   UNL     1       0.169   4.687  54.817  1.00  0.00     0.049 A 
ATOM     24  C   UNL     1       0.502   4.715  53.436  1.00  0.00     0.120 A 
BRANCH  24  25
ATOM     25  O   UNL     1       1.217   5.775  52.859  1.00  0.00    -0.497 OA
ATOM     26  C   UNL     1       1.931   5.687  51.631  1.00  0.00     0.278 C 
ENDBRANCH  24  25
ENDBRANCH  14  16
ENDBRANCH   5  12
TORSDOF 6
ENDMDL
MODEL 3
REMARK VINA RESULT:    -5.330      2.646      3.271
REMARK INTER + INTRA:          -7.813
REMARK INTER:                  -7.498
REMARK INTRA:                  -0.315
REMARK UNBOUND:                -0.613
REMARK SMILES CCCSc1ncc(Cl)c(C(=O)Nc2nc3ccc(OC)cc3s2)n1
REMARK SMILES IDX 5 1 6 2 7 3 8 4 10 5 25 6 9 7 4 8 3 9 2 10 1 11 11 12 12 13
REMARK SMILES IDX 13 14 14 16 15 17 24 18 16 19 23 20 17 21 22 22 18 23 19 24
REMARK SMILES IDX 20 25 21 26
REMARK H PARENT 13 15
ROOT
ATOM      1  C   UNL     1      -2.648  -4.457  52.207  1.00  0.00     0.188 A 
ATOM      2  N   UNL     1      -2.135  -5.159  51.166  1.00  0.00    -0.230 NA
ATOM      3  C   UNL     1      -1.036  -4.719  50.503  1.00  0.00     0.137 A 
ATOM      4  C   UNL     1      -0.409  -3.533  50.892  1.00  0.00     0.090 A 
ATOM      5  C   UNL     1      -0.936  -2.828  51.994  1.00  0.00     0.151 A 
ATOM      6  N   UNL     1      -2.050  -3.306  52.611  1.00  0.00    -0.216 NA
ATOM      7  Cl  UNL     1       0.940  -2.937  49.930  1.00  0.00    -0.080 Cl
ENDROOT
BRANCH   1   8
ATOM      8  S   UNL     1      -4.105  -5.054  53.061  1.00  0.00    -0.086 SA
BRANCH   8   9
ATOM      9  C   UNL     1      -5.292  -4.318  51.883  1.00  0.00     0.078 C 
BRANCH   9  10
ATOM     10  C   UNL     1      -6.611  -5.097  51.878  1.00  0.00     0.008 C 
ATOM     11  C   UNL     1      -7.426  -4.790  50.626  1.00  0.00     0.005 C 
ENDBRANCH   9  10
ENDBRANCH   8   9
ENDBRANCH   1   8
BRANCH   5  12
ATOM     12  C   UNL     1      -0.346  -1.572  52.492  1.00  0.00     0.277 C 
ATOM     13  O   UNL     1       0.774  -1.614  53.069  1.00  0.00    -0.267 OA
ATOM     14  N   UNL     1      -0.990  -0.310  52.255  1.00  0.00    -0.296 N 
ATOM     15  H   UNL     1      -1.749  -0.261  51.538  1.00  0.00     0.172 HD
BRANCH  14  16
ATOM     16  C   UNL     1      -0.620   0.905  52.918  1.00  0.00     0.190 A 
ATOM     17  N   UNL     1      -0.336   2.062  52.272  1.00  0.00    -0.220 NA
ATOM     18  S   UNL     1      -0.455   1.041  54.599  1.00  0.00    -0.096 S 
ATOM     19  C   UNL     1       0.001   3.035  53.155  1.00  0.00     0.084 A 
ATOM     20  C   UNL     1      -0.009   2.655  54.487  1.00  0.00     0.060 A 
ATOM     21  C   UNL     1       0.344   4.339  52.798  1.00  0.00     0.034 A 
ATOM     22  C   UNL     1       0.316   3.540  55.511  1.00  0.00     0.067 A 
ATOM     23  C   UNL     1       0.677   5.254  53.811  1.00  0.00     0.049 A 
ATOM     24  C   UNL     1       0.665   4.860  55.175  1.00  0.00     0.120 A 
BRANCH  24  25
ATOM     25  O   UNL     1       0.989   5.744  56.214  1.00  0.00    -0.497 OA
ATOM     26  C   UNL     1       1.517   5.344  57.474  1.00  0.00     0.278 C 
ENDBRANCH  24  25
ENDBRANCH  14  16
ENDBRANCH   5  12
TORSDOF 6
ENDMDL
MODEL 4
REMARK VINA RESULT:    -5.313      4.699      7.432
REMARK INTER + INTRA:          -7.791
REMARK INTER:                  -7.365
REMARK INTRA:                  -0.425
REMARK UNBOUND:                -0.613
REMARK SMILES CCCSc1ncc(Cl)c(C(=O)Nc2nc3ccc(OC)cc3s2)n1
REMARK SMILES IDX 5 1 6 2 7 3 8 4 10 5 25 6 9 7 4 8 3 9 2 10 1 11 11 12 12 13
REMARK SMILES IDX 13 14 14 16 15 17 24 18 16 19 23 20 17 21 22 22 18 23 19 24
REMARK SMILES IDX 20 25 21 26
REMARK H PARENT 13 15
ROOT
ATOM      1  C   UNL     1       1.429  -2.457  50.796  1.00  0.00     0.188 A 
ATOM      2  N   UNL     1       1.918  -3.598  50.250  1.00  0.00    -0.230 NA
ATOM      3  C   UNL     1       1.797  -4.786  50.895  1.00  0.00     0.137 A 
ATOM      4  C   UNL     1       1.154  -4.851  52.133  1.00  0.00     0.090 A 
ATOM      5  C   UNL     1       0.626  -3.661  52.676  1.00  0.00     0.151 A 
ATOM      6  N   UNL     1       0.790  -2.495  51.994  1.00  0.00    -0.216 NA
ATOM      7  Cl  UNL     1       1.126  -6.390  52.989  1.00  0.00    -0.080 Cl
ENDROOT
BRANCH   1   8
ATOM      8  S   UNL     1       1.609  -0.899  49.930  1.00  0.00    -0.086 SA
BRANCH   8   9
ATOM      9  C   UNL     1       1.820   0.101  51.444  1.00  0.00     0.078 C 
BRANCH   9  10
ATOM     10  C   UNL     1       0.965   1.370  51.384  1.00  0.00     0.008 C 
ATOM     11  C   UNL     1       1.640   2.450  50.544  1.00  0.00     0.005 C 
ENDBRANCH   9  10
ENDBRANCH   8   9
ENDBRANCH   1   8
BRANCH   5  12
ATOM     12  C   UNL     1      -0.079  -3.620  53.970  1.00  0.00     0.277 C 
ATOM     13  O   UNL     1       0.528  -3.167  54.978  1.00  0.00    -0.267 OA
ATOM     14  N   UNL     1      -1.458  -4.009  54.071  1.00  0.00    -0.296 N 
ATOM     15  H   UNL     1      -2.019  -4.101  53.195  1.00  0.00     0.172 HD
BRANCH  14  16
ATOM     16  C   UNL     1      -2.126  -4.240  55.318  1.00  0.00     0.190 A 
ATOM     17  N   UNL     1      -1.638  -5.035  56.301  1.00  0.00    -0.220 NA
ATOM     18  S   UNL     1      -3.634  -3.575  55.708  1.00  0.00    -0.096 S 
ATOM     19  C   UNL     1      -2.495  -5.080  57.352  1.00  0.00     0.084 A 
ATOM     20  C   UNL     1      -3.652  -4.335  57.204  1.00  0.00     0.060 A 
ATOM     21  C   UNL     1      -2.273  -5.812  58.519  1.00  0.00     0.034 A 
ATOM     22  C   UNL     1      -4.630  -4.281  58.194  1.00  0.00     0.067 A 
ATOM     23  C   UNL     1      -3.242  -5.777  59.536  1.00  0.00     0.049 A 
ATOM     24  C   UNL     1      -4.427  -5.010  59.379  1.00  0.00     0.120 A 
BRANCH  24  25
ATOM     25  O   UNL     1      -5.417  -4.949  60.372  1.00  0.00    -0.497 OA
ATOM     26  C   UNL     1      -6.792  -4.683  60.119  1.00  0.00     0.278 C 
ENDBRANCH  24  25
ENDBRANCH  14  16
ENDBRANCH   5  12
TORSDOF 6
ENDMDL
MODEL 5
REMARK VINA RESULT:    -5.051      2.963      4.054
REMARK INTER + INTRA:          -7.436
REMARK INTER:                  -6.892
REMARK INTRA:                  -0.544
REMARK UNBOUND:                -0.613
REMARK SMILES CCCSc1ncc(Cl)c(C(=O)Nc2nc3ccc(OC)cc3s2)n1
REMARK SMILES IDX 5 1 6 2 7 3 8 4 10 5 25 6 9 7 4 8 3 9 2 10 1 11 11 12 12 13
REMARK SMILES IDX 13 14 14 16 15 17 24 18 16 19 23 20 17 21 22 22 18 23 19 24
REMARK SMILES IDX 20 25 21 26
REMARK H PARENT 13 15
ROOT
ATOM      1  C   UNL     1      -4.125  -4.295  55.133  1.00  0.00     0.188 A 
ATOM      2  N   UNL     1      -3.920  -5.416  54.395  1.00  0.00    -0.230 NA
ATOM      3  C   UNL     1      -2.904  -5.483  53.498  1.00  0.00     0.137 A 
ATOM      4  C   UNL     1      -2.045  -4.395  53.326  1.00  0.00     0.090 A 
ATOM      5  C   UNL     1      -2.253  -3.248  54.119  1.00  0.00     0.151 A 
ATOM      6  N   UNL     1      -3.297  -3.228  54.992  1.00  0.00    -0.216 NA
ATOM      7  Cl  UNL     1      -0.818  -4.480  52.066  1.00  0.00    -0.080 Cl
ENDROOT
BRANCH   1   8
ATOM      8  S   UNL     1      -5.477  -4.228  56.305  1.00  0.00    -0.086 SA
BRANCH   8   9
ATOM      9  C   UNL     1      -4.733  -5.417  57.475  1.00  0.00     0.078 C 
BRANCH   9  10
ATOM     10  C   UNL     1      -3.597  -4.764  58.268  1.00  0.00     0.008 C 
ATOM     11  C   UNL     1      -3.564  -5.275  59.705  1.00  0.00     0.005 C 
ENDBRANCH   9  10
ENDBRANCH   8   9
ENDBRANCH   1   8
BRANCH   5  12
ATOM     12  C   UNL     1      -1.400  -2.049  54.025  1.00  0.00     0.277 C 
ATOM     13  O   UNL     1      -0.321  -2.018  54.676  1.00  0.00    -0.267 OA
ATOM     14  N   UNL     1      -1.744  -0.967  53.145  1.00  0.00    -0.296 N 
ATOM     15  H   UNL     1      -2.468  -1.129  52.409  1.00  0.00     0.172 HD
BRANCH  14  16
ATOM     16  C   UNL     1      -1.115   0.320  53.188  1.00  0.00     0.190 A 
ATOM     17  N   UNL     1       0.077   0.599  52.604  1.00  0.00    -0.220 NA
ATOM     18  S   UNL     1      -1.764   1.652  54.009  1.00  0.00    -0.096 S 
ATOM     19  C   UNL     1       0.431   1.889  52.829  1.00  0.00     0.084 A 
ATOM     20  C   UNL     1      -0.464   2.625  53.587  1.00  0.00     0.060 A 
ATOM     21  C   UNL     1       1.603   2.479  52.354  1.00  0.00     0.034 A 
ATOM     22  C   UNL     1      -0.241   3.962  53.904  1.00  0.00     0.067 A 
ATOM     23  C   UNL     1       1.855   3.827  52.659  1.00  0.00     0.049 A 
ATOM     24  C   UNL     1       0.934   4.577  53.437  1.00  0.00     0.120 A 
BRANCH  24  25
ATOM     25  O   UNL     1       1.150   5.925  53.761  1.00  0.00    -0.497 OA
ATOM     26  C   UNL     1       0.666   6.554  54.942  1.00  0.00     0.278 C 
ENDBRANCH  24  25
ENDBRANCH  14  16
ENDBRANCH   5  12
TORSDOF 6
ENDMDL
