ligand-2BMF
     RDKit          3D

 40 42  0  0  0  0  0  0  0  0999 V2000
   -6.6650   -0.8260   50.3060 C   0  0  0  0  0  0  0  0  0  0  0  0
   -6.9440   -2.3130   50.1090 C   0  0  0  0  0  0  0  0  0  0  0  0
   -5.7660   -3.1650   50.5890 C   0  0  0  0  0  0  0  0  0  0  0  0
   -6.3530   -4.6610   51.4570 S   0  0  0  0  0  0  0  0  0  0  0  0
   -4.8550   -4.8850   52.4130 C   0  0  0  0  0  0  0  0  0  0  0  0
   -4.3070   -6.1190   52.5380 N   0  0  0  0  0  0  0  0  0  0  0  0
   -3.1690   -6.3070   53.2520 C   0  0  0  0  0  0  0  0  0  0  0  0
   -2.5480   -5.2260   53.8820 C   0  0  0  0  0  0  0  0  0  0  0  0
   -1.0100   -5.4940   54.6960 Cl  0  0  0  0  0  0  0  0  0  0  0  0
   -3.1440   -3.9530   53.7670 C   0  0  0  0  0  0  0  0  0  0  0  0
   -2.5770   -2.7480   54.3990 C   0  0  0  0  0  0  0  0  0  0  0  0
   -2.9360   -2.4490   55.5700 O   0  0  0  0  0  0  0  0  0  0  0  0
   -1.5700   -1.9700   53.7320 N   0  0  0  0  0  0  0  0  0  0  0  0
   -1.1650   -0.6640   54.1600 C   0  0  0  0  0  0  0  0  0  0  0  0
    0.0120   -0.4060   54.7820 N   0  0  0  0  0  0  0  0  0  0  0  0
    0.1140    0.9130   55.0880 C   0  0  0  0  0  0  0  0  0  0  0  0
    1.2090    1.4910   55.7290 C   0  0  0  0  0  0  0  0  0  0  0  0
    1.1900    2.8710   55.9920 C   0  0  0  0  0  0  0  0  0  0  0  0
    0.0760    3.6640   55.6120 C   0  0  0  0  0  0  0  0  0  0  0  0
    0.0210    5.0450   55.8550 O   0  0  0  0  0  0  0  0  0  0  0  0
    0.5070    6.0380   54.9600 C   0  0  0  0  0  0  0  0  0  0  0  0
   -1.0180    3.0600   54.9660 C   0  0  0  0  0  0  0  0  0  0  0  0
   -0.9710    1.6910   54.7190 C   0  0  0  0  0  0  0  0  0  0  0  0
   -2.1220    0.7210   53.9770 S   0  0  0  0  0  0  0  0  0  0  0  0
   -4.2760   -3.8190   53.0240 N   0  0  0  0  0  0  0  0  0  0  0  0
   -6.6226   -0.6003   51.3818 H   0  0  0  0  0  0  0  0  0  0  0  0
   -5.7029   -0.5685   49.8391 H   0  0  0  0  0  0  0  0  0  0  0  0
   -7.4683   -0.2372   49.8391 H   0  0  0  0  0  0  0  0  0  0  0  0
   -7.8426   -2.5884   50.6806 H   0  0  0  0  0  0  0  0  0  0  0  0
   -7.0950   -2.5001   49.0356 H   0  0  0  0  0  0  0  0  0  0  0  0
   -5.1622   -3.4665   49.7203 H   0  0  0  0  0  0  0  0  0  0  0  0
   -5.1626   -2.5675   51.2882 H   0  0  0  0  0  0  0  0  0  0  0  0
   -2.7339   -7.3139   53.3351 H   0  0  0  0  0  0  0  0  0  0  0  0
   -1.0810   -2.3840   52.9070 H   0  0  0  0  0  0  0  0  0  0  0  0
    2.0729    0.8771   56.0237 H   0  0  0  0  0  0  0  0  0  0  0  0
    2.0466    3.3412   56.4972 H   0  0  0  0  0  0  0  0  0  0  0  0
    0.9191    6.8801   55.5354 H   0  0  0  0  0  0  0  0  0  0  0  0
    1.2956    5.6061   54.3263 H   0  0  0  0  0  0  0  0  0  0  0  0
   -0.3179    6.3957   54.3263 H   0  0  0  0  0  0  0  0  0  0  0  0
   -1.8912    3.6564   54.6628 H   0  0  0  0  0  0  0  0  0  0  0  0
  1  2  1  0
  2  3  1  0
  3  4  1  0
  4  5  1  0
  5  6  2  0
  6  7  1  0
  7  8  2  0
  8  9  1  0
  8 10  1  0
 10 11  1  0
 11 12  2  0
 11 13  1  0
 13 14  1  0
 14 15  2  0
 15 16  1  0
 16 17  2  0
 17 18  1  0
 18 19  2  0
 19 20  1  0
 20 21  1  0
 19 22  1  0
 22 23  2  0
 23 24  1  0
 10 25  2  0
 25  5  1  0
 24 14  1  0
 23 16  1  0
  1 26  1  0
  1 27  1  0
  1 28  1  0
  2 29  1  0
  2 30  1  0
  3 31  1  0
  3 32  1  0
  7 33  1  0
 13 34  1  0
 17 35  1  0
 18 36  1  0
 21 37  1  0
 21 38  1  0
 21 39  1  0
 22 40  1  0
M  END
>  <meeko>  (1) 
{"is_sidechain": [false], "free_energy": -5.82, "intermolecular_energy": -7.862, "internal_energy": -0.551}

$$$$
ligand-2BMF
     RDKit          3D

 40 42  0  0  0  0  0  0  0  0999 V2000
   -7.7410   -4.5310   50.3810 C   0  0  0  0  0  0  0  0  0  0  0  0
   -6.8530   -3.2910   50.3770 C   0  0  0  0  0  0  0  0  0  0  0  0
   -5.5010   -3.5780   51.0370 C   0  0  0  0  0  0  0  0  0  0  0  0
   -5.5770   -5.1010   52.0440 S   0  0  0  0  0  0  0  0  0  0  0  0
   -3.8810   -4.9980   52.6090 C   0  0  0  0  0  0  0  0  0  0  0  0
   -3.2070   -6.1270   52.9470 N   0  0  0  0  0  0  0  0  0  0  0  0
   -1.9200   -6.0690   53.3710 C   0  0  0  0  0  0  0  0  0  0  0  0
   -1.2690   -4.8390   53.4760 C   0  0  0  0  0  0  0  0  0  0  0  0
    0.4370   -4.8210   53.9140 Cl  0  0  0  0  0  0  0  0  0  0  0  0
   -1.9900   -3.6710   53.1490 C   0  0  0  0  0  0  0  0  0  0  0  0
   -1.4010   -2.3220   53.2330 C   0  0  0  0  0  0  0  0  0  0  0  0
   -0.4970   -2.0010   52.4160 O   0  0  0  0  0  0  0  0  0  0  0  0
   -1.9020   -1.3570   54.1720 N   0  0  0  0  0  0  0  0  0  0  0  0
   -1.2250   -0.1340   54.4890 C   0  0  0  0  0  0  0  0  0  0  0  0
   -0.0780   -0.0710   55.2100 N   0  0  0  0  0  0  0  0  0  0  0  0
    0.3180    1.2180   55.3670 C   0  0  0  0  0  0  0  0  0  0  0  0
    1.4640    1.6100   56.0600 C   0  0  0  0  0  0  0  0  0  0  0  0
    1.7630    2.9800   56.1540 C   0  0  0  0  0  0  0  0  0  0  0  0
    0.9140    3.9480   55.5550 C   0  0  0  0  0  0  0  0  0  0  0  0
    1.1800    5.3240   55.6270 O   0  0  0  0  0  0  0  0  0  0  0  0
    0.4490    6.3200   54.9200 C   0  0  0  0  0  0  0  0  0  0  0  0
   -0.2350    3.5290   54.8620 C   0  0  0  0  0  0  0  0  0  0  0  0
   -0.5060    2.1660   54.7860 C   0  0  0  0  0  0  0  0  0  0  0  0
   -1.7930    1.3950   54.0330 S   0  0  0  0  0  0  0  0  0  0  0  0
   -3.2730   -3.7880   52.7130 N   0  0  0  0  0  0  0  0  0  0  0  0
   -7.9529   -4.8269   51.4191 H   0  0  0  0  0  0  0  0  0  0  0  0
   -8.6855   -4.3073   49.8634 H   0  0  0  0  0  0  0  0  0  0  0  0
   -7.2251   -5.3531   49.8634 H   0  0  0  0  0  0  0  0  0  0  0  0
   -6.6849   -2.9730   49.3375 H   0  0  0  0  0  0  0  0  0  0  0  0
   -7.3585   -2.4978   50.9474 H   0  0  0  0  0  0  0  0  0  0  0  0
   -4.7374   -3.7011   50.2549 H   0  0  0  0  0  0  0  0  0  0  0  0
   -5.2449   -2.7343   51.6947 H   0  0  0  0  0  0  0  0  0  0  0  0
   -1.3872   -6.9950   53.6331 H   0  0  0  0  0  0  0  0  0  0  0  0
   -2.8240   -1.5340   54.6310 H   0  0  0  0  0  0  0  0  0  0  0  0
    2.1215    0.8603   56.5243 H   0  0  0  0  0  0  0  0  0  0  0  0
    2.6629    3.3054   56.6965 H   0  0  0  0  0  0  0  0  0  0  0  0
   -0.0441    6.9918   55.6380 H   0  0  0  0  0  0  0  0  0  0  0  0
    1.1371    6.9003   54.2878 H   0  0  0  0  0  0  0  0  0  0  0  0
   -0.3110    5.8375   54.2878 H   0  0  0  0  0  0  0  0  0  0  0  0
   -0.9053    4.2624   54.3901 H   0  0  0  0  0  0  0  0  0  0  0  0
  1  2  1  0
  2  3  1  0
  3  4  1  0
  4  5  1  0
  5  6  2  0
  6  7  1  0
  7  8  2  0
  8  9  1  0
  8 10  1  0
 10 11  1  0
 11 12  2  0
 11 13  1  0
 13 14  1  0
 14 15  2  0
 15 16  1  0
 16 17  2  0
 17 18  1  0
 18 19  2  0
 19 20  1  0
 20 21  1  0
 19 22  1  0
 22 23  2  0
 23 24  1  0
 10 25  2  0
 25  5  1  0
 24 14  1  0
 23 16  1  0
  1 26  1  0
  1 27  1  0
  1 28  1  0
  2 29  1  0
  2 30  1  0
  3 31  1  0
  3 32  1  0
  7 33  1  0
 13 34  1  0
 17 35  1  0
 18 36  1  0
 21 37  1  0
 21 38  1  0
 21 39  1  0
 22 40  1  0
M  END
>  <meeko>  (2) 
{"is_sidechain": [false], "free_energy": -5.565, "intermolecular_energy": -7.568, "internal_energy": -0.499}

$$$$
ligand-2BMF
     RDKit          3D

 40 42  0  0  0  0  0  0  0  0999 V2000
   -0.1580    1.5310   53.4110 C   0  0  0  0  0  0  0  0  0  0  0  0
    0.0940    1.3330   51.9190 C   0  0  0  0  0  0  0  0  0  0  0  0
   -0.5150    0.0180   51.4250 C   0  0  0  0  0  0  0  0  0  0  0  0
    0.3560   -0.5860   49.9380 S   0  0  0  0  0  0  0  0  0  0  0  0
    0.6490   -2.2300   50.5860 C   0  0  0  0  0  0  0  0  0  0  0  0
    1.6840   -2.9710   50.1150 N   0  0  0  0  0  0  0  0  0  0  0  0
    1.9250   -4.2160   50.5980 C   0  0  0  0  0  0  0  0  0  0  0  0
    1.1010   -4.7580   51.5870 C   0  0  0  0  0  0  0  0  0  0  0  0
    1.5220   -6.3250   52.2710 Cl  0  0  0  0  0  0  0  0  0  0  0  0
    0.0130   -3.9870   52.0470 C   0  0  0  0  0  0  0  0  0  0  0  0
   -0.9230   -4.4670   53.0800 C   0  0  0  0  0  0  0  0  0  0  0  0
   -1.6440   -5.4690   52.8280 O   0  0  0  0  0  0  0  0  0  0  0  0
   -0.9570   -3.8610   54.3820 N   0  0  0  0  0  0  0  0  0  0  0  0
   -1.9990   -4.0950   55.3380 C   0  0  0  0  0  0  0  0  0  0  0  0
   -1.8530   -4.8740   56.4380 N   0  0  0  0  0  0  0  0  0  0  0  0
   -3.0100   -4.9280   57.1450 C   0  0  0  0  0  0  0  0  0  0  0  0
   -3.1770   -5.6460   58.3290 C   0  0  0  0  0  0  0  0  0  0  0  0
   -4.4300   -5.6230   58.9640 C   0  0  0  0  0  0  0  0  0  0  0  0
   -5.5080   -4.8820   58.4120 C   0  0  0  0  0  0  0  0  0  0  0  0
   -6.7720   -4.8330   59.0180 O   0  0  0  0  0  0  0  0  0  0  0  0
   -6.9880   -4.7970   60.4240 C   0  0  0  0  0  0  0  0  0  0  0  0
   -5.3160   -4.1650   57.2180 C   0  0  0  0  0  0  0  0  0  0  0  0
   -4.0640   -4.2070   56.6100 C   0  0  0  0  0  0  0  0  0  0  0  0
   -3.5610   -3.4580   55.1950 S   0  0  0  0  0  0  0  0  0  0  0  0
   -0.1720   -2.7380   51.5400 N   0  0  0  0  0  0  0  0  0  0  0  0
    0.5787    0.9521   53.9873 H   0  0  0  0  0  0  0  0  0  0  0  0
   -0.0623    2.5980   53.6606 H   0  0  0  0  0  0  0  0  0  0  0  0
   -1.1721    1.1856   53.6606 H   0  0  0  0  0  0  0  0  0  0  0  0
   -0.3582    2.1686   51.3646 H   0  0  0  0  0  0  0  0  0  0  0  0
    1.1805    1.2990   51.7505 H   0  0  0  0  0  0  0  0  0  0  0  0
   -0.4350   -0.7372   52.2208 H   0  0  0  0  0  0  0  0  0  0  0  0
   -1.5697    0.1944   51.1670 H   0  0  0  0  0  0  0  0  0  0  0  0
    2.7721   -4.8003   50.2094 H   0  0  0  0  0  0  0  0  0  0  0  0
   -0.1680   -3.2380   54.6670 H   0  0  0  0  0  0  0  0  0  0  0  0
   -2.3425   -6.2201   58.7580 H   0  0  0  0  0  0  0  0  0  0  0  0
   -4.5774   -6.1847   59.8982 H   0  0  0  0  0  0  0  0  0  0  0  0
   -6.0329   -4.9562   60.9459 H   0  0  0  0  0  0  0  0  0  0  0  0
   -7.4014   -3.8176   60.7065 H   0  0  0  0  0  0  0  0  0  0  0  0
   -7.6967   -5.5894   60.7065 H   0  0  0  0  0  0  0  0  0  0  0  0
   -6.1371   -3.5834   56.7737 H   0  0  0  0  0  0  0  0  0  0  0  0
  1  2  1  0
  2  3  1  0
  3  4  1  0
  4  5  1  0
  5  6  2  0
  6  7  1  0
  7  8  2  0
  8  9  1  0
  8 10  1  0
 10 11  1  0
 11 12  2  0
 11 13  1  0
 13 14  1  0
 14 15  2  0
 15 16  1  0
 16 17  2  0
 17 18  1  0
 18 19  2  0
 19 20  1  0
 20 21  1  0
 19 22  1  0
 22 23  2  0
 23 24  1  0
 10 25  2  0
 25  5  1  0
 24 14  1  0
 23 16  1  0
  1 26  1  0
  1 27  1  0
  1 28  1  0
  2 29  1  0
  2 30  1  0
  3 31  1  0
  3 32  1  0
  7 33  1  0
 13 34  1  0
 17 35  1  0
 18 36  1  0
 21 37  1  0
 21 38  1  0
 21 39  1  0
 22 40  1  0
M  END
>  <meeko>  (3) 
{"is_sidechain": [false], "free_energy": -5.534, "intermolecular_energy": -7.477, "internal_energy": -0.549}

$$$$
ligand-2BMF
     RDKit          3D

 40 42  0  0  0  0  0  0  0  0999 V2000
    1.0650    5.1370   56.8390 C   0  0  0  0  0  0  0  0  0  0  0  0
   -0.2310    4.6050   56.2360 C   0  0  0  0  0  0  0  0  0  0  0  0
   -0.3340    4.9570   54.7490 C   0  0  0  0  0  0  0  0  0  0  0  0
    1.1610    4.4190   53.8470 S   0  0  0  0  0  0  0  0  0  0  0  0
    0.8950    2.6710   54.1330 C   0  0  0  0  0  0  0  0  0  0  0  0
    1.8320    1.9390   54.7860 N   0  0  0  0  0  0  0  0  0  0  0  0
    1.6450    0.6150   55.0180 C   0  0  0  0  0  0  0  0  0  0  0  0
    0.4810   -0.0180   54.5760 C   0  0  0  0  0  0  0  0  0  0  0  0
    0.2250   -1.7070   55.0040 Cl  0  0  0  0  0  0  0  0  0  0  0  0
   -0.4720    0.7490   53.8750 C   0  0  0  0  0  0  0  0  0  0  0  0
   -1.7290    0.1780   53.3570 C   0  0  0  0  0  0  0  0  0  0  0  0
   -2.8240    0.6250   53.7930 O   0  0  0  0  0  0  0  0  0  0  0  0
   -1.7150   -0.8100   52.3150 N   0  0  0  0  0  0  0  0  0  0  0  0
   -2.8610   -1.5880   51.9460 C   0  0  0  0  0  0  0  0  0  0  0  0
   -3.0820   -2.8560   52.3730 N   0  0  0  0  0  0  0  0  0  0  0  0
   -4.2320   -3.3460   51.8460 C   0  0  0  0  0  0  0  0  0  0  0  0
   -4.7330   -4.6230   52.0990 C   0  0  0  0  0  0  0  0  0  0  0  0
   -5.9370   -5.0120   51.4870 C   0  0  0  0  0  0  0  0  0  0  0  0
   -6.6320   -4.1220   50.6260 C   0  0  0  0  0  0  0  0  0  0  0  0
   -7.8360   -4.4730   49.9990 O   0  0  0  0  0  0  0  0  0  0  0  0
   -8.4500   -5.7540   50.1000 C   0  0  0  0  0  0  0  0  0  0  0  0
   -6.1080   -2.8400   50.3860 C   0  0  0  0  0  0  0  0  0  0  0  0
   -4.9130   -2.4820   51.0050 C   0  0  0  0  0  0  0  0  0  0  0  0
   -4.0700   -1.0350   50.8960 S   0  0  0  0  0  0  0  0  0  0  0  0
   -0.2410    2.0760   53.6850 N   0  0  0  0  0  0  0  0  0  0  0  0
    0.9973    5.1092   57.9366 H   0  0  0  0  0  0  0  0  0  0  0  0
    1.9073    4.5119   56.5077 H   0  0  0  0  0  0  0  0  0  0  0  0
    1.2252    6.1736   56.5077 H   0  0  0  0  0  0  0  0  0  0  0  0
   -0.2569    3.5111   56.3486 H   0  0  0  0  0  0  0  0  0  0  0  0
   -1.0774    5.0688   56.7637 H   0  0  0  0  0  0  0  0  0  0  0  0
   -1.2137    4.4549   54.3201 H   0  0  0  0  0  0  0  0  0  0  0  0
   -0.4295    6.0485   54.6519 H   0  0  0  0  0  0  0  0  0  0  0  0
    2.4123    0.0387   55.5557 H   0  0  0  0  0  0  0  0  0  0  0  0
   -0.8350   -0.9540   51.7700 H   0  0  0  0  0  0  0  0  0  0  0  0
   -4.1954   -5.3133   52.7656 H   0  0  0  0  0  0  0  0  0  0  0  0
   -6.3449   -6.0158   51.6769 H   0  0  0  0  0  0  0  0  0  0  0  0
   -8.5763   -6.0175   51.1605 H   0  0  0  0  0  0  0  0  0  0  0  0
   -9.4339   -5.7288   49.6088 H   0  0  0  0  0  0  0  0  0  0  0  0
   -7.8141   -6.5052   49.6088 H   0  0  0  0  0  0  0  0  0  0  0  0
   -6.6307   -2.1345   49.7234 H   0  0  0  0  0  0  0  0  0  0  0  0
  1  2  1  0
  2  3  1  0
  3  4  1  0
  4  5  1  0
  5  6  2  0
  6  7  1  0
  7  8  2  0
  8  9  1  0
  8 10  1  0
 10 11  1  0
 11 12  2  0
 11 13  1  0
 13 14  1  0
 14 15  2  0
 15 16  1  0
 16 17  2  0
 17 18  1  0
 18 19  2  0
 19 20  1  0
 20 21  1  0
 19 22  1  0
 22 23  2  0
 23 24  1  0
 10 25  2  0
 25  5  1  0
 24 14  1  0
 23 16  1  0
  1 26  1  0
  1 27  1  0
  1 28  1  0
  2 29  1  0
  2 30  1  0
  3 31  1  0
  3 32  1  0
  7 33  1  0
 13 34  1  0
 17 35  1  0
 18 36  1  0
 21 37  1  0
 21 38  1  0
 21 39  1  0
 22 40  1  0
M  END
>  <meeko>  (4) 
{"is_sidechain": [false], "free_energy": -5.516, "intermolecular_energy": -7.447, "internal_energy": -0.554}

$$$$
ligand-2BMF
     RDKit          3D

 40 42  0  0  0  0  0  0  0  0999 V2000
   -6.1070   -4.0400   59.6320 C   0  0  0  0  0  0  0  0  0  0  0  0
   -6.5120   -5.2250   58.7610 C   0  0  0  0  0  0  0  0  0  0  0  0
   -5.2900   -5.8650   58.0950 C   0  0  0  0  0  0  0  0  0  0  0  0
   -3.8230   -4.7860   58.2520 S   0  0  0  0  0  0  0  0  0  0  0  0
   -3.7630   -4.3520   56.5150 C   0  0  0  0  0  0  0  0  0  0  0  0
   -4.4780   -5.0670   55.6110 N   0  0  0  0  0  0  0  0  0  0  0  0
   -4.4510   -4.7470   54.2920 C   0  0  0  0  0  0  0  0  0  0  0  0
   -3.6730   -3.6780   53.8440 C   0  0  0  0  0  0  0  0  0  0  0  0
   -3.7600   -3.2240   52.1450 Cl  0  0  0  0  0  0  0  0  0  0  0  0
   -2.9130   -2.9610   54.7920 C   0  0  0  0  0  0  0  0  0  0  0  0
   -2.0510   -1.8220   54.4250 C   0  0  0  0  0  0  0  0  0  0  0  0
   -0.8070   -2.0030   54.3440 O   0  0  0  0  0  0  0  0  0  0  0  0
   -2.6210   -0.5480   54.0830 N   0  0  0  0  0  0  0  0  0  0  0  0
   -1.8540    0.6570   53.9700 C   0  0  0  0  0  0  0  0  0  0  0  0
   -1.7850    1.6030   54.9390 N   0  0  0  0  0  0  0  0  0  0  0  0
   -1.0030    2.6390   54.5440 C   0  0  0  0  0  0  0  0  0  0  0  0
   -0.7350    3.7650   55.3220 C   0  0  0  0  0  0  0  0  0  0  0  0
    0.0900    4.7730   54.7950 C   0  0  0  0  0  0  0  0  0  0  0  0
    0.6430    4.6480   53.4930 C   0  0  0  0  0  0  0  0  0  0  0  0
    1.4720    5.6310   52.9330 O   0  0  0  0  0  0  0  0  0  0  0  0
    1.9320    5.6220   51.5860 C   0  0  0  0  0  0  0  0  0  0  0  0
    0.3590    3.5030   52.7270 C   0  0  0  0  0  0  0  0  0  0  0  0
   -0.4630    2.5220   53.2750 C   0  0  0  0  0  0  0  0  0  0  0  0
   -0.9620    1.0730   52.5910 S   0  0  0  0  0  0  0  0  0  0  0  0
   -2.9910   -3.3130   56.1030 N   0  0  0  0  0  0  0  0  0  0  0  0
   -6.2012   -4.3155   60.6928 H   0  0  0  0  0  0  0  0  0  0  0  0
   -5.0640   -3.7654   59.4157 H   0  0  0  0  0  0  0  0  0  0  0  0
   -6.7638   -3.1845   59.4157 H   0  0  0  0  0  0  0  0  0  0  0  0
   -7.0138   -5.9766   59.3882 H   0  0  0  0  0  0  0  0  0  0  0  0
   -7.1891   -4.8634   57.9731 H   0  0  0  0  0  0  0  0  0  0  0  0
   -5.0805   -6.8305   58.5786 H   0  0  0  0  0  0  0  0  0  0  0  0
   -5.5073   -6.0100   57.0265 H   0  0  0  0  0  0  0  0  0  0  0  0
   -5.0442   -5.3321   53.5738 H   0  0  0  0  0  0  0  0  0  0  0  0
   -3.6430   -0.4950   53.8740 H   0  0  0  0  0  0  0  0  0  0  0  0
   -1.1622    3.8624   56.3310 H   0  0  0  0  0  0  0  0  0  0  0  0
    0.3096    5.6673   55.3966 H   0  0  0  0  0  0  0  0  0  0  0  0
    3.0317    5.6005   51.5742 H   0  0  0  0  0  0  0  0  0  0  0  0
    1.5423    4.7313   51.0714 H   0  0  0  0  0  0  0  0  0  0  0  0
    1.5774    6.5273   51.0714 H   0  0  0  0  0  0  0  0  0  0  0  0
    0.7774    3.3852   51.7165 H   0  0  0  0  0  0  0  0  0  0  0  0
  1  2  1  0
  2  3  1  0
  3  4  1  0
  4  5  1  0
  5  6  2  0
  6  7  1  0
  7  8  2  0
  8  9  1  0
  8 10  1  0
 10 11  1  0
 11 12  2  0
 11 13  1  0
 13 14  1  0
 14 15  2  0
 15 16  1  0
 16 17  2  0
 17 18  1  0
 18 19  2  0
 19 20  1  0
 20 21  1  0
 19 22  1  0
 22 23  2  0
 23 24  1  0
 10 25  2  0
 25  5  1  0
 24 14  1  0
 23 16  1  0
  1 26  1  0
  1 27  1  0
  1 28  1  0
  2 29  1  0
  2 30  1  0
  3 31  1  0
  3 32  1  0
  7 33  1  0
 13 34  1  0
 17 35  1  0
 18 36  1  0
 21 37  1  0
 21 38  1  0
 21 39  1  0
 22 40  1  0
M  END
>  <meeko>  (5) 
{"is_sidechain": [false], "free_energy": -5.48, "intermolecular_energy": -7.417, "internal_energy": -0.536}

$$$$
