MODEL 1
REMARK VINA RESULT:    -5.820      0.000      0.000
REMARK INTER + INTRA:          -8.412
REMARK INTER:                  -7.862
REMARK INTRA:                  -0.551
REMARK UNBOUND:                -0.551
REMARK SMILES CCCSc1ncc(Cl)c(C(=O)Nc2nc3ccc(OC)cc3s2)n1
REMARK SMILES IDX 5 1 6 2 7 3 8 4 10 5 25 6 9 7 4 8 3 9 2 10 1 11 11 12 12 13
REMARK SMILES IDX 13 14 14 16 15 17 24 18 16 19 23 20 17 21 22 22 18 23 19 24
REMARK SMILES IDX 20 25 21 26
REMARK H PARENT 13 15
ROOT
ATOM      1  C   UNL     1      -4.855  -4.885  52.413  1.00  0.00     0.188 A 
ATOM      2  N   UNL     1      -4.307  -6.119  52.538  1.00  0.00    -0.230 NA
ATOM      3  C   UNL     1      -3.169  -6.307  53.252  1.00  0.00     0.137 A 
ATOM      4  C   UNL     1      -2.548  -5.226  53.882  1.00  0.00     0.090 A 
ATOM      5  C   UNL     1      -3.144  -3.953  53.767  1.00  0.00     0.151 A 
ATOM      6  N   UNL     1      -4.276  -3.819  53.024  1.00  0.00    -0.216 NA
ATOM      7  Cl  UNL     1      -1.010  -5.494  54.696  1.00  0.00    -0.080 Cl
ENDROOT
BRANCH   1   8
ATOM      8  S   UNL     1      -6.353  -4.661  51.457  1.00  0.00    -0.086 SA
BRANCH   8   9
ATOM      9  C   UNL     1      -5.766  -3.165  50.589  1.00  0.00     0.078 C 
BRANCH   9  10
ATOM     10  C   UNL     1      -6.944  -2.313  50.109  1.00  0.00     0.008 C 
ATOM     11  C   UNL     1      -6.665  -0.826  50.306  1.00  0.00     0.005 C 
ENDBRANCH   9  10
ENDBRANCH   8   9
ENDBRANCH   1   8
BRANCH   5  12
ATOM     12  C   UNL     1      -2.577  -2.748  54.399  1.00  0.00     0.277 C 
ATOM     13  O   UNL     1      -2.936  -2.449  55.570  1.00  0.00    -0.267 OA
ATOM     14  N   UNL     1      -1.570  -1.970  53.732  1.00  0.00    -0.296 N 
ATOM     15  H   UNL     1      -1.081  -2.384  52.907  1.00  0.00     0.172 HD
BRANCH  14  16
ATOM     16  C   UNL     1      -1.165  -0.664  54.160  1.00  0.00     0.190 A 
ATOM     17  N   UNL     1       0.012  -0.406  54.782  1.00  0.00    -0.220 NA
ATOM     18  S   UNL     1      -2.122   0.721  53.977  1.00  0.00    -0.096 S 
ATOM     19  C   UNL     1       0.114   0.913  55.088  1.00  0.00     0.084 A 
ATOM     20  C   UNL     1      -0.971   1.691  54.719  1.00  0.00     0.060 A 
ATOM     21  C   UNL     1       1.209   1.491  55.729  1.00  0.00     0.034 A 
ATOM     22  C   UNL     1      -1.018   3.060  54.966  1.00  0.00     0.067 A 
ATOM     23  C   UNL     1       1.190   2.871  55.992  1.00  0.00     0.049 A 
ATOM     24  C   UNL     1       0.076   3.664  55.612  1.00  0.00     0.120 A 
BRANCH  24  25
ATOM     25  O   UNL     1       0.021   5.045  55.855  1.00  0.00    -0.497 OA
ATOM     26  C   UNL     1       0.507   6.038  54.960  1.00  0.00     0.278 C 
ENDBRANCH  24  25
ENDBRANCH  14  16
ENDBRANCH   5  12
TORSDOF 6
ENDMDL
MODEL 2
REMARK VINA RESULT:    -5.565      1.345      1.482
REMARK INTER + INTRA:          -8.067
REMARK INTER:                  -7.568
REMARK INTRA:                  -0.499
REMARK UNBOUND:                -0.551
REMARK SMILES CCCSc1ncc(Cl)c(C(=O)Nc2nc3ccc(OC)cc3s2)n1
REMARK SMILES IDX 5 1 6 2 7 3 8 4 10 5 25 6 9 7 4 8 3 9 2 10 1 11 11 12 12 13
REMARK SMILES IDX 13 14 14 16 15 17 24 18 16 19 23 20 17 21 22 22 18 23 19 24
REMARK SMILES IDX 20 25 21 26
REMARK H PARENT 13 15
ROOT
ATOM      1  C   UNL     1      -3.881  -4.998  52.609  1.00  0.00     0.188 A 
ATOM      2  N   UNL     1      -3.207  -6.127  52.947  1.00  0.00    -0.230 NA
ATOM      3  C   UNL     1      -1.920  -6.069  53.371  1.00  0.00     0.137 A 
ATOM      4  C   UNL     1      -1.269  -4.839  53.476  1.00  0.00     0.090 A 
ATOM      5  C   UNL     1      -1.990  -3.671  53.149  1.00  0.00     0.151 A 
ATOM      6  N   UNL     1      -3.273  -3.788  52.713  1.00  0.00    -0.216 NA
ATOM      7  Cl  UNL     1       0.437  -4.821  53.914  1.00  0.00    -0.080 Cl
ENDROOT
BRANCH   1   8
ATOM      8  S   UNL     1      -5.577  -5.101  52.044  1.00  0.00    -0.086 SA
BRANCH   8   9
ATOM      9  C   UNL     1      -5.501  -3.578  51.037  1.00  0.00     0.078 C 
BRANCH   9  10
ATOM     10  C   UNL     1      -6.853  -3.291  50.377  1.00  0.00     0.008 C 
ATOM     11  C   UNL     1      -7.741  -4.531  50.381  1.00  0.00     0.005 C 
ENDBRANCH   9  10
ENDBRANCH   8   9
ENDBRANCH   1   8
BRANCH   5  12
ATOM     12  C   UNL     1      -1.401  -2.322  53.233  1.00  0.00     0.277 C 
ATOM     13  O   UNL     1      -0.497  -2.001  52.416  1.00  0.00    -0.267 OA
ATOM     14  N   UNL     1      -1.902  -1.357  54.172  1.00  0.00    -0.296 N 
ATOM     15  H   UNL     1      -2.824  -1.534  54.631  1.00  0.00     0.172 HD
BRANCH  14  16
ATOM     16  C   UNL     1      -1.225  -0.134  54.489  1.00  0.00     0.190 A 
ATOM     17  N   UNL     1      -0.078  -0.071  55.210  1.00  0.00    -0.220 NA
ATOM     18  S   UNL     1      -1.793   1.395  54.033  1.00  0.00    -0.096 S 
ATOM     19  C   UNL     1       0.318   1.218  55.367  1.00  0.00     0.084 A 
ATOM     20  C   UNL     1      -0.506   2.166  54.786  1.00  0.00     0.060 A 
ATOM     21  C   UNL     1       1.464   1.610  56.060  1.00  0.00     0.034 A 
ATOM     22  C   UNL     1      -0.235   3.529  54.862  1.00  0.00     0.067 A 
ATOM     23  C   UNL     1       1.763   2.980  56.154  1.00  0.00     0.049 A 
ATOM     24  C   UNL     1       0.914   3.948  55.555  1.00  0.00     0.120 A 
BRANCH  24  25
ATOM     25  O   UNL     1       1.180   5.324  55.627  1.00  0.00    -0.497 OA
ATOM     26  C   UNL     1       0.449   6.320  54.920  1.00  0.00     0.278 C 
ENDBRANCH  24  25
ENDBRANCH  14  16
ENDBRANCH   5  12
TORSDOF 6
ENDMDL
MODEL 3
REMARK VINA RESULT:    -5.534      4.338      7.327
REMARK INTER + INTRA:          -8.026
REMARK INTER:                  -7.477
REMARK INTRA:                  -0.549
REMARK UNBOUND:                -0.551
REMARK SMILES CCCSc1ncc(Cl)c(C(=O)Nc2nc3ccc(OC)cc3s2)n1
REMARK SMILES IDX 5 1 6 2 7 3 8 4 10 5 25 6 9 7 4 8 3 9 2 10 1 11 11 12 12 13
REMARK SMILES IDX 13 14 14 16 15 17 24 18 16 19 23 20 17 21 22 22 18 23 19 24
REMARK SMILES IDX 20 25 21 26
REMARK H PARENT 13 15
ROOT
ATOM      1  C   UNL     1       0.649  -2.230  50.586  1.00  0.00     0.188 A 
ATOM      2  N   UNL     1       1.684  -2.971  50.115  1.00  0.00    -0.230 NA
ATOM      3  C   UNL     1       1.925  -4.216  50.598  1.00  0.00     0.137 A 
ATOM      4  C   UNL     1       1.101  -4.758  51.587  1.00  0.00     0.090 A 
ATOM      5  C   UNL     1       0.013  -3.987  52.047  1.00  0.00     0.151 A 
ATOM      6  N   UNL     1      -0.172  -2.738  51.540  1.00  0.00    -0.216 NA
ATOM      7  Cl  UNL     1       1.522  -6.325  52.271  1.00  0.00    -0.080 Cl
ENDROOT
BRANCH   1   8
ATOM      8  S   UNL     1       0.356  -0.586  49.938  1.00  0.00    -0.086 SA
BRANCH   8   9
ATOM      9  C   UNL     1      -0.515   0.018  51.425  1.00  0.00     0.078 C 
BRANCH   9  10
ATOM     10  C   UNL     1       0.094   1.333  51.919  1.00  0.00     0.008 C 
ATOM     11  C   UNL     1      -0.158   1.531  53.411  1.00  0.00     0.005 C 
ENDBRANCH   9  10
ENDBRANCH   8   9
ENDBRANCH   1   8
BRANCH   5  12
ATOM     12  C   UNL     1      -0.923  -4.467  53.080  1.00  0.00     0.277 C 
ATOM     13  O   UNL     1      -1.644  -5.469  52.828  1.00  0.00    -0.267 OA
ATOM     14  N   UNL     1      -0.957  -3.861  54.382  1.00  0.00    -0.296 N 
ATOM     15  H   UNL     1      -0.168  -3.238  54.667  1.00  0.00     0.172 HD
BRANCH  14  16
ATOM     16  C   UNL     1      -1.999  -4.095  55.338  1.00  0.00     0.190 A 
ATOM     17  N   UNL     1      -1.853  -4.874  56.438  1.00  0.00    -0.220 NA
ATOM     18  S   UNL     1      -3.561  -3.458  55.195  1.00  0.00    -0.096 S 
ATOM     19  C   UNL     1      -3.010  -4.928  57.145  1.00  0.00     0.084 A 
ATOM     20  C   UNL     1      -4.064  -4.207  56.610  1.00  0.00     0.060 A 
ATOM     21  C   UNL     1      -3.177  -5.646  58.329  1.00  0.00     0.034 A 
ATOM     22  C   UNL     1      -5.316  -4.165  57.218  1.00  0.00     0.067 A 
ATOM     23  C   UNL     1      -4.430  -5.623  58.964  1.00  0.00     0.049 A 
ATOM     24  C   UNL     1      -5.508  -4.882  58.412  1.00  0.00     0.120 A 
BRANCH  24  25
ATOM     25  O   UNL     1      -6.772  -4.833  59.018  1.00  0.00    -0.497 OA
ATOM     26  C   UNL     1      -6.988  -4.797  60.424  1.00  0.00     0.278 C 
ENDBRANCH  24  25
ENDBRANCH  14  16
ENDBRANCH   5  12
TORSDOF 6
ENDMDL
MODEL 4
REMARK VINA RESULT:    -5.516      2.820      8.859
REMARK INTER + INTRA:          -8.001
REMARK INTER:                  -7.447
REMARK INTRA:                  -0.554
REMARK UNBOUND:                -0.551
REMARK SMILES CCCSc1ncc(Cl)c(C(=O)Nc2nc3ccc(OC)cc3s2)n1
REMARK SMILES IDX 5 1 6 2 7 3 8 4 10 5 25 6 9 7 4 8 3 9 2 10 1 11 11 12 12 13
REMARK SMILES IDX 13 14 14 16 15 17 24 18 16 19 23 20 17 21 22 22 18 23 19 24
REMARK SMILES IDX 20 25 21 26
REMARK H PARENT 13 15
ROOT
ATOM      1  C   UNL     1       0.895   2.671  54.133  1.00  0.00     0.188 A 
ATOM      2  N   UNL     1       1.832   1.939  54.786  1.00  0.00    -0.230 NA
ATOM      3  C   UNL     1       1.645   0.615  55.018  1.00  0.00     0.137 A 
ATOM      4  C   UNL     1       0.481  -0.018  54.576  1.00  0.00     0.090 A 
ATOM      5  C   UNL     1      -0.472   0.749  53.875  1.00  0.00     0.151 A 
ATOM      6  N   UNL     1      -0.241   2.076  53.685  1.00  0.00    -0.216 NA
ATOM      7  Cl  UNL     1       0.225  -1.707  55.004  1.00  0.00    -0.080 Cl
ENDROOT
BRANCH   1   8
ATOM      8  S   UNL     1       1.161   4.419  53.847  1.00  0.00    -0.086 SA
BRANCH   8   9
ATOM      9  C   UNL     1      -0.334   4.957  54.749  1.00  0.00     0.078 C 
BRANCH   9  10
ATOM     10  C   UNL     1      -0.231   4.605  56.236  1.00  0.00     0.008 C 
ATOM     11  C   UNL     1       1.065   5.137  56.839  1.00  0.00     0.005 C 
ENDBRANCH   9  10
ENDBRANCH   8   9
ENDBRANCH   1   8
BRANCH   5  12
ATOM     12  C   UNL     1      -1.729   0.178  53.357  1.00  0.00     0.277 C 
ATOM     13  O   UNL     1      -2.824   0.625  53.793  1.00  0.00    -0.267 OA
ATOM     14  N   UNL     1      -1.715  -0.810  52.315  1.00  0.00    -0.296 N 
ATOM     15  H   UNL     1      -0.835  -0.954  51.770  1.00  0.00     0.172 HD
BRANCH  14  16
ATOM     16  C   UNL     1      -2.861  -1.588  51.946  1.00  0.00     0.190 A 
ATOM     17  N   UNL     1      -3.082  -2.856  52.373  1.00  0.00    -0.220 NA
ATOM     18  S   UNL     1      -4.070  -1.035  50.896  1.00  0.00    -0.096 S 
ATOM     19  C   UNL     1      -4.232  -3.346  51.846  1.00  0.00     0.084 A 
ATOM     20  C   UNL     1      -4.913  -2.482  51.005  1.00  0.00     0.060 A 
ATOM     21  C   UNL     1      -4.733  -4.623  52.099  1.00  0.00     0.034 A 
ATOM     22  C   UNL     1      -6.108  -2.840  50.386  1.00  0.00     0.067 A 
ATOM     23  C   UNL     1      -5.937  -5.012  51.487  1.00  0.00     0.049 A 
ATOM     24  C   UNL     1      -6.632  -4.122  50.626  1.00  0.00     0.120 A 
BRANCH  24  25
ATOM     25  O   UNL     1      -7.836  -4.473  49.999  1.00  0.00    -0.497 OA
ATOM     26  C   UNL     1      -8.450  -5.754  50.100  1.00  0.00     0.278 C 
ENDBRANCH  24  25
ENDBRANCH  14  16
ENDBRANCH   5  12
TORSDOF 6
ENDMDL
MODEL 5
REMARK VINA RESULT:    -5.480      3.287      4.252
REMARK INTER + INTRA:          -7.953
REMARK INTER:                  -7.417
REMARK INTRA:                  -0.536
REMARK UNBOUND:                -0.551
REMARK SMILES CCCSc1ncc(Cl)c(C(=O)Nc2nc3ccc(OC)cc3s2)n1
REMARK SMILES IDX 5 1 6 2 7 3 8 4 10 5 25 6 9 7 4 8 3 9 2 10 1 11 11 12 12 13
REMARK SMILES IDX 13 14 14 16 15 17 24 18 16 19 23 20 17 21 22 22 18 23 19 24
REMARK SMILES IDX 20 25 21 26
REMARK H PARENT 13 15
ROOT
ATOM      1  C   UNL     1      -3.763  -4.352  56.515  1.00  0.00     0.188 A 
ATOM      2  N   UNL     1      -4.478  -5.067  55.611  1.00  0.00    -0.230 NA
ATOM      3  C   UNL     1      -4.451  -4.747  54.292  1.00  0.00     0.137 A 
ATOM      4  C   UNL     1      -3.673  -3.678  53.844  1.00  0.00     0.090 A 
ATOM      5  C   UNL     1      -2.913  -2.961  54.792  1.00  0.00     0.151 A 
ATOM      6  N   UNL     1      -2.991  -3.313  56.103  1.00  0.00    -0.216 NA
ATOM      7  Cl  UNL     1      -3.760  -3.224  52.145  1.00  0.00    -0.080 Cl
ENDROOT
BRANCH   1   8
ATOM      8  S   UNL     1      -3.823  -4.786  58.252  1.00  0.00    -0.086 SA
BRANCH   8   9
ATOM      9  C   UNL     1      -5.290  -5.865  58.095  1.00  0.00     0.078 C 
BRANCH   9  10
ATOM     10  C   UNL     1      -6.512  -5.225  58.761  1.00  0.00     0.008 C 
ATOM     11  C   UNL     1      -6.107  -4.040  59.632  1.00  0.00     0.005 C 
ENDBRANCH   9  10
ENDBRANCH   8   9
ENDBRANCH   1   8
BRANCH   5  12
ATOM     12  C   UNL     1      -2.051  -1.822  54.425  1.00  0.00     0.277 C 
ATOM     13  O   UNL     1      -0.807  -2.003  54.344  1.00  0.00    -0.267 OA
ATOM     14  N   UNL     1      -2.621  -0.548  54.083  1.00  0.00    -0.296 N 
ATOM     15  H   UNL     1      -3.643  -0.495  53.874  1.00  0.00     0.172 HD
BRANCH  14  16
ATOM     16  C   UNL     1      -1.854   0.657  53.970  1.00  0.00     0.190 A 
ATOM     17  N   UNL     1      -1.785   1.603  54.939  1.00  0.00    -0.220 NA
ATOM     18  S   UNL     1      -0.962   1.073  52.591  1.00  0.00    -0.096 S 
ATOM     19  C   UNL     1      -1.003   2.639  54.544  1.00  0.00     0.084 A 
ATOM     20  C   UNL     1      -0.463   2.522  53.275  1.00  0.00     0.060 A 
ATOM     21  C   UNL     1      -0.735   3.765  55.322  1.00  0.00     0.034 A 
ATOM     22  C   UNL     1       0.359   3.503  52.727  1.00  0.00     0.067 A 
ATOM     23  C   UNL     1       0.090   4.773  54.795  1.00  0.00     0.049 A 
ATOM     24  C   UNL     1       0.643   4.648  53.493  1.00  0.00     0.120 A 
BRANCH  24  25
ATOM     25  O   UNL     1       1.472   5.631  52.933  1.00  0.00    -0.497 OA
ATOM     26  C   UNL     1       1.932   5.622  51.586  1.00  0.00     0.278 C 
ENDBRANCH  24  25
ENDBRANCH  14  16
ENDBRANCH   5  12
TORSDOF 6
ENDMDL
