MODEL 1
REMARK VINA RESULT:    -5.817      0.000      0.000
REMARK INTER + INTRA:          -8.388
REMARK INTER:                  -7.857
REMARK INTRA:                  -0.531
REMARK UNBOUND:                -0.531
REMARK SMILES CCCSc1ncc(Cl)c(C(=O)Nc2nc3ccc(OC)cc3s2)n1
REMARK SMILES IDX 5 1 6 2 7 3 8 4 10 5 25 6 9 7 4 8 3 9 2 10 1 11 11 12 12 13
REMARK SMILES IDX 13 14 14 16 15 17 24 18 16 19 23 20 17 21 22 22 18 23 19 24
REMARK SMILES IDX 20 25 21 26
REMARK H PARENT 13 15
ROOT
ATOM      1  C   UNL     1      -4.889  -4.596  52.158  1.00  0.00     0.188 A 
ATOM      2  N   UNL     1      -4.417  -5.859  52.312  1.00  0.00    -0.230 NA
ATOM      3  C   UNL     1      -3.341  -6.109  53.100  1.00  0.00     0.137 A 
ATOM      4  C   UNL     1      -2.706  -5.064  53.775  1.00  0.00     0.090 A 
ATOM      5  C   UNL     1      -3.225  -3.761  53.628  1.00  0.00     0.151 A 
ATOM      6  N   UNL     1      -4.296  -3.565  52.812  1.00  0.00    -0.216 NA
ATOM      7  Cl  UNL     1      -1.242  -5.415  54.689  1.00  0.00    -0.080 Cl
ENDROOT
BRANCH   1   8
ATOM      8  S   UNL     1      -6.305  -4.291  51.105  1.00  0.00    -0.086 SA
BRANCH   8   9
ATOM      9  C   UNL     1      -5.652  -2.735  50.407  1.00  0.00     0.078 C 
BRANCH   9  10
ATOM     10  C   UNL     1      -6.791  -1.781  50.036  1.00  0.00     0.008 C 
ATOM     11  C   UNL     1      -6.469  -0.350  50.454  1.00  0.00     0.005 C 
ENDBRANCH   9  10
ENDBRANCH   8   9
ENDBRANCH   1   8
BRANCH   5  12
ATOM     12  C   UNL     1      -2.637  -2.588  54.302  1.00  0.00     0.277 C 
ATOM     13  O   UNL     1      -3.126  -2.211  55.401  1.00  0.00    -0.267 OA
ATOM     14  N   UNL     1      -1.476  -1.934  53.765  1.00  0.00    -0.296 N 
ATOM     15  H   UNL     1      -0.919  -2.425  53.030  1.00  0.00     0.172 HD
BRANCH  14  16
ATOM     16  C   UNL     1      -1.009  -0.656  54.213  1.00  0.00     0.190 A 
ATOM     17  N   UNL     1       0.161  -0.467  54.872  1.00  0.00    -0.220 NA
ATOM     18  S   UNL     1      -1.880   0.783  54.008  1.00  0.00    -0.096 S 
ATOM     19  C   UNL     1       0.328   0.842  55.187  1.00  0.00     0.084 A 
ATOM     20  C   UNL     1      -0.698   1.682  54.791  1.00  0.00     0.060 A 
ATOM     21  C   UNL     1       1.435   1.354  55.864  1.00  0.00     0.034 A 
ATOM     22  C   UNL     1      -0.674   3.051  55.043  1.00  0.00     0.067 A 
ATOM     23  C   UNL     1       1.487   2.732  56.134  1.00  0.00     0.049 A 
ATOM     24  C   UNL     1       0.432   3.590  55.725  1.00  0.00     0.120 A 
BRANCH  24  25
ATOM     25  O   UNL     1       0.449   4.970  55.974  1.00  0.00    -0.497 OA
ATOM     26  C   UNL     1       0.407   5.969  54.961  1.00  0.00     0.278 C 
ENDBRANCH  24  25
ENDBRANCH  14  16
ENDBRANCH   5  12
TORSDOF 6
ENDMDL
MODEL 2
REMARK VINA RESULT:    -5.611      2.614      3.032
REMARK INTER + INTRA:          -8.110
REMARK INTER:                  -7.785
REMARK INTRA:                  -0.325
REMARK UNBOUND:                -0.531
REMARK SMILES CCCSc1ncc(Cl)c(C(=O)Nc2nc3ccc(OC)cc3s2)n1
REMARK SMILES IDX 5 1 6 2 7 3 8 4 10 5 25 6 9 7 4 8 3 9 2 10 1 11 11 12 12 13
REMARK SMILES IDX 13 14 14 16 15 17 24 18 16 19 23 20 17 21 22 22 18 23 19 24
REMARK SMILES IDX 20 25 21 26
REMARK H PARENT 13 15
ROOT
ATOM      1  C   UNL     1      -3.172  -4.307  52.094  1.00  0.00     0.188 A 
ATOM      2  N   UNL     1      -2.671  -5.039  51.067  1.00  0.00    -0.230 NA
ATOM      3  C   UNL     1      -1.522  -4.671  50.446  1.00  0.00     0.137 A 
ATOM      4  C   UNL     1      -0.831  -3.532  50.863  1.00  0.00     0.090 A 
ATOM      5  C   UNL     1      -1.349  -2.796  51.949  1.00  0.00     0.151 A 
ATOM      6  N   UNL     1      -2.513  -3.200  52.525  1.00  0.00    -0.216 NA
ATOM      7  Cl  UNL     1       0.588  -3.025  49.951  1.00  0.00    -0.080 Cl
ENDROOT
BRANCH   1   8
ATOM      8  S   UNL     1      -4.695  -4.807  52.892  1.00  0.00    -0.086 SA
BRANCH   8   9
ATOM      9  C   UNL     1      -5.757  -4.446  51.450  1.00  0.00     0.078 C 
BRANCH   9  10
ATOM     10  C   UNL     1      -7.130  -5.108  51.604  1.00  0.00     0.008 C 
ATOM     11  C   UNL     1      -7.858  -5.183  50.266  1.00  0.00     0.005 C 
ENDBRANCH   9  10
ENDBRANCH   8   9
ENDBRANCH   1   8
BRANCH   5  12
ATOM     12  C   UNL     1      -0.693  -1.585  52.475  1.00  0.00     0.277 C 
ATOM     13  O   UNL     1       0.371  -1.709  53.139  1.00  0.00    -0.267 OA
ATOM     14  N   UNL     1      -1.206  -0.278  52.169  1.00  0.00    -0.296 N 
ATOM     15  H   UNL     1      -1.900  -0.179  51.395  1.00  0.00     0.172 HD
BRANCH  14  16
ATOM     16  C   UNL     1      -0.786   0.915  52.843  1.00  0.00     0.190 A 
ATOM     17  N   UNL     1      -0.344   2.027  52.204  1.00  0.00    -0.220 NA
ATOM     18  S   UNL     1      -0.753   1.077  54.528  1.00  0.00    -0.096 S 
ATOM     19  C   UNL     1       0.002   2.988  53.098  1.00  0.00     0.084 A 
ATOM     20  C   UNL     1      -0.155   2.642  54.429  1.00  0.00     0.060 A 
ATOM     21  C   UNL     1       0.491   4.247  52.751  1.00  0.00     0.034 A 
ATOM     22  C   UNL     1       0.159   3.519  55.464  1.00  0.00     0.067 A 
ATOM     23  C   UNL     1       0.817   5.153  53.774  1.00  0.00     0.049 A 
ATOM     24  C   UNL     1       0.653   4.794  55.138  1.00  0.00     0.120 A 
BRANCH  24  25
ATOM     25  O   UNL     1       0.966   5.671  56.187  1.00  0.00    -0.497 OA
ATOM     26  C   UNL     1       1.531   5.268  57.429  1.00  0.00     0.278 C 
ENDBRANCH  24  25
ENDBRANCH  14  16
ENDBRANCH   5  12
TORSDOF 6
ENDMDL
MODEL 3
REMARK VINA RESULT:    -5.488      4.815      7.055
REMARK INTER + INTRA:          -7.943
REMARK INTER:                  -7.354
REMARK INTRA:                  -0.590
REMARK UNBOUND:                -0.531
REMARK SMILES CCCSc1ncc(Cl)c(C(=O)Nc2nc3ccc(OC)cc3s2)n1
REMARK SMILES IDX 5 1 6 2 7 3 8 4 10 5 25 6 9 7 4 8 3 9 2 10 1 11 11 12 12 13
REMARK SMILES IDX 13 14 14 16 15 17 24 18 16 19 23 20 17 21 22 22 18 23 19 24
REMARK SMILES IDX 20 25 21 26
REMARK H PARENT 13 15
ROOT
ATOM      1  C   UNL     1       0.399  -2.006  50.504  1.00  0.00     0.188 A 
ATOM      2  N   UNL     1       1.436  -2.705  49.978  1.00  0.00    -0.230 NA
ATOM      3  C   UNL     1       1.717  -3.961  50.405  1.00  0.00     0.137 A 
ATOM      4  C   UNL     1       0.932  -4.560  51.393  1.00  0.00     0.090 A 
ATOM      5  C   UNL     1      -0.160  -3.833  51.910  1.00  0.00     0.151 A 
ATOM      6  N   UNL     1      -0.386  -2.570  51.457  1.00  0.00    -0.216 NA
ATOM      7  Cl  UNL     1       1.405  -6.143  52.003  1.00  0.00    -0.080 Cl
ENDROOT
BRANCH   1   8
ATOM      8  S   UNL     1       0.053  -0.345  49.930  1.00  0.00    -0.086 SA
BRANCH   8   9
ATOM      9  C   UNL     1      -1.506  -0.174  50.867  1.00  0.00     0.078 C 
BRANCH   9  10
ATOM     10  C   UNL     1      -2.716  -0.228  49.930  1.00  0.00     0.008 C 
ATOM     11  C   UNL     1      -3.421  -1.578  50.018  1.00  0.00     0.005 C 
ENDBRANCH   9  10
ENDBRANCH   8   9
ENDBRANCH   1   8
BRANCH   5  12
ATOM     12  C   UNL     1      -1.058  -4.375  52.947  1.00  0.00     0.277 C 
ATOM     13  O   UNL     1      -1.792  -5.358  52.662  1.00  0.00    -0.267 OA
ATOM     14  N   UNL     1      -1.040  -3.849  54.284  1.00  0.00    -0.296 N 
ATOM     15  H   UNL     1      -0.238  -3.247  54.577  1.00  0.00     0.172 HD
BRANCH  14  16
ATOM     16  C   UNL     1      -2.045  -4.141  55.263  1.00  0.00     0.190 A 
ATOM     17  N   UNL     1      -1.844  -4.945  56.336  1.00  0.00    -0.220 NA
ATOM     18  S   UNL     1      -3.629  -3.546  55.184  1.00  0.00    -0.096 S 
ATOM     19  C   UNL     1      -2.977  -5.052  57.075  1.00  0.00     0.084 A 
ATOM     20  C   UNL     1      -4.068  -4.348  56.591  1.00  0.00     0.060 A 
ATOM     21  C   UNL     1      -3.088  -5.807  58.242  1.00  0.00     0.034 A 
ATOM     22  C   UNL     1      -5.301  -4.360  57.236  1.00  0.00     0.067 A 
ATOM     23  C   UNL     1      -4.322  -5.839  58.914  1.00  0.00     0.049 A 
ATOM     24  C   UNL     1      -5.437  -5.115  58.415  1.00  0.00     0.120 A 
BRANCH  24  25
ATOM     25  O   UNL     1      -6.683  -5.120  59.058  1.00  0.00    -0.497 OA
ATOM     26  C   UNL     1      -6.900  -4.674  60.392  1.00  0.00     0.278 C 
ENDBRANCH  24  25
ENDBRANCH  14  16
ENDBRANCH   5  12
TORSDOF 6
ENDMDL
MODEL 4
REMARK VINA RESULT:    -5.451      3.002      8.949
REMARK INTER + INTRA:          -7.894
REMARK INTER:                  -7.811
REMARK INTRA:                  -0.083
REMARK UNBOUND:                -0.531
REMARK SMILES CCCSc1ncc(Cl)c(C(=O)Nc2nc3ccc(OC)cc3s2)n1
REMARK SMILES IDX 5 1 6 2 7 3 8 4 10 5 25 6 9 7 4 8 3 9 2 10 1 11 11 12 12 13
REMARK SMILES IDX 13 14 14 16 15 17 24 18 16 19 23 20 17 21 22 22 18 23 19 24
REMARK SMILES IDX 20 25 21 26
REMARK H PARENT 13 15
ROOT
ATOM      1  C   UNL     1       0.960   3.431  53.726  1.00  0.00     0.188 A 
ATOM      2  N   UNL     1       1.932   2.745  54.378  1.00  0.00    -0.230 NA
ATOM      3  C   UNL     1       1.790   1.422  54.646  1.00  0.00     0.137 A 
ATOM      4  C   UNL     1       0.638   0.743  54.243  1.00  0.00     0.090 A 
ATOM      5  C   UNL     1      -0.351   1.463  53.541  1.00  0.00     0.151 A 
ATOM      6  N   UNL     1      -0.165   2.791  53.314  1.00  0.00    -0.216 NA
ATOM      7  Cl  UNL     1       0.443  -0.942  54.717  1.00  0.00    -0.080 Cl
ENDROOT
BRANCH   1   8
ATOM      8  S   UNL     1       1.166   5.179  53.391  1.00  0.00    -0.086 SA
BRANCH   8   9
ATOM      9  C   UNL     1       0.218   5.733  54.851  1.00  0.00     0.078 C 
BRANCH   9  10
ATOM     10  C   UNL     1       0.364   4.740  56.007  1.00  0.00     0.008 C 
ATOM     11  C   UNL     1       1.300   5.282  57.083  1.00  0.00     0.005 C 
ENDBRANCH   9  10
ENDBRANCH   8   9
ENDBRANCH   1   8
BRANCH   5  12
ATOM     12  C   UNL     1      -1.599   0.841  53.063  1.00  0.00     0.277 C 
ATOM     13  O   UNL     1      -2.701   1.294  53.475  1.00  0.00    -0.267 OA
ATOM     14  N   UNL     1      -1.571  -0.208  52.081  1.00  0.00    -0.296 N 
ATOM     15  H   UNL     1      -0.690  -0.369  51.544  1.00  0.00     0.172 HD
BRANCH  14  16
ATOM     16  C   UNL     1      -2.704  -1.026  51.763  1.00  0.00     0.190 A 
ATOM     17  N   UNL     1      -2.888  -2.281  52.242  1.00  0.00    -0.220 NA
ATOM     18  S   UNL     1      -3.943  -0.542  50.714  1.00  0.00    -0.096 S 
ATOM     19  C   UNL     1      -4.035  -2.817  51.755  1.00  0.00     0.084 A 
ATOM     20  C   UNL     1      -4.750  -2.002  50.894  1.00  0.00     0.060 A 
ATOM     21  C   UNL     1      -4.502  -4.094  52.066  1.00  0.00     0.034 A 
ATOM     22  C   UNL     1      -5.946  -2.411  50.310  1.00  0.00     0.067 A 
ATOM     23  C   UNL     1      -5.706  -4.534  51.491  1.00  0.00     0.049 A 
ATOM     24  C   UNL     1      -6.436  -3.695  50.609  1.00  0.00     0.120 A 
BRANCH  24  25
ATOM     25  O   UNL     1      -7.642  -4.098  50.017  1.00  0.00    -0.497 OA
ATOM     26  C   UNL     1      -8.081  -5.449  49.930  1.00  0.00     0.278 C 
ENDBRANCH  24  25
ENDBRANCH  14  16
ENDBRANCH   5  12
TORSDOF 6
ENDMDL
MODEL 5
REMARK VINA RESULT:    -5.434      3.316      4.351
REMARK INTER + INTRA:          -7.872
REMARK INTER:                  -7.391
REMARK INTRA:                  -0.481
REMARK UNBOUND:                -0.531
REMARK SMILES CCCSc1ncc(Cl)c(C(=O)Nc2nc3ccc(OC)cc3s2)n1
REMARK SMILES IDX 5 1 6 2 7 3 8 4 10 5 25 6 9 7 4 8 3 9 2 10 1 11 11 12 12 13
REMARK SMILES IDX 13 14 14 16 15 17 24 18 16 19 23 20 17 21 22 22 18 23 19 24
REMARK SMILES IDX 20 25 21 26
REMARK H PARENT 13 15
ROOT
ATOM      1  C   UNL     1      -3.698  -4.455  56.329  1.00  0.00     0.188 A 
ATOM      2  N   UNL     1      -4.426  -5.133  55.406  1.00  0.00    -0.230 NA
ATOM      3  C   UNL     1      -4.423  -4.755  54.103  1.00  0.00     0.137 A 
ATOM      4  C   UNL     1      -3.660  -3.662  53.689  1.00  0.00     0.090 A 
ATOM      5  C   UNL     1      -2.887  -2.983  54.654  1.00  0.00     0.151 A 
ATOM      6  N   UNL     1      -2.939  -3.394  55.950  1.00  0.00    -0.216 NA
ATOM      7  Cl  UNL     1      -3.780  -3.133  52.014  1.00  0.00    -0.080 Cl
ENDROOT
BRANCH   1   8
ATOM      8  S   UNL     1      -3.725  -4.967  58.045  1.00  0.00    -0.086 SA
BRANCH   8   9
ATOM      9  C   UNL     1      -5.471  -5.506  58.023  1.00  0.00     0.078 C 
BRANCH   9  10
ATOM     10  C   UNL     1      -6.354  -4.528  58.804  1.00  0.00     0.008 C 
ATOM     11  C   UNL     1      -5.688  -4.106  60.109  1.00  0.00     0.005 C 
ENDBRANCH   9  10
ENDBRANCH   8   9
ENDBRANCH   1   8
BRANCH   5  12
ATOM     12  C   UNL     1      -2.039  -1.824  54.324  1.00  0.00     0.277 C 
ATOM     13  O   UNL     1      -0.787  -1.970  54.312  1.00  0.00    -0.267 OA
ATOM     14  N   UNL     1      -2.623  -0.569  53.939  1.00  0.00    -0.296 N 
ATOM     15  H   UNL     1      -3.634  -0.546  53.674  1.00  0.00     0.172 HD
BRANCH  14  16
ATOM     16  C   UNL     1      -1.885   0.656  53.856  1.00  0.00     0.190 A 
ATOM     17  N   UNL     1      -1.877   1.601  54.829  1.00  0.00    -0.220 NA
ATOM     18  S   UNL     1      -0.955   1.100  52.511  1.00  0.00    -0.096 S 
ATOM     19  C   UNL     1      -1.109   2.659  54.464  1.00  0.00     0.084 A 
ATOM     20  C   UNL     1      -0.519   2.559  53.215  1.00  0.00     0.060 A 
ATOM     21  C   UNL     1      -0.899   3.789  55.254  1.00  0.00     0.034 A 
ATOM     22  C   UNL     1       0.295   3.563  52.699  1.00  0.00     0.067 A 
ATOM     23  C   UNL     1      -0.082   4.819  54.759  1.00  0.00     0.049 A 
ATOM     24  C   UNL     1       0.521   4.713  53.477  1.00  0.00     0.120 A 
BRANCH  24  25
ATOM     25  O   UNL     1       1.344   5.719  52.950  1.00  0.00    -0.497 OA
ATOM     26  C   UNL     1       1.865   5.718  51.625  1.00  0.00     0.278 C 
ENDBRANCH  24  25
ENDBRANCH  14  16
ENDBRANCH   5  12
TORSDOF 6
ENDMDL
MODEL 6
REMARK VINA RESULT:    -5.311      1.693      2.132
REMARK INTER + INTRA:          -7.705
REMARK INTER:                  -7.467
REMARK INTRA:                  -0.238
REMARK UNBOUND:                -0.531
REMARK SMILES CCCSc1ncc(Cl)c(C(=O)Nc2nc3ccc(OC)cc3s2)n1
REMARK SMILES IDX 5 1 6 2 7 3 8 4 10 5 25 6 9 7 4 8 3 9 2 10 1 11 11 12 12 13
REMARK SMILES IDX 13 14 14 16 15 17 24 18 16 19 23 20 17 21 22 22 18 23 19 24
REMARK SMILES IDX 20 25 21 26
REMARK H PARENT 13 15
ROOT
ATOM      1  C   UNL     1      -3.788  -4.675  52.225  1.00  0.00     0.188 A 
ATOM      2  N   UNL     1      -3.138  -5.825  52.535  1.00  0.00    -0.230 NA
ATOM      3  C   UNL     1      -2.147  -5.836  53.462  1.00  0.00     0.137 A 
ATOM      4  C   UNL     1      -1.787  -4.659  54.121  1.00  0.00     0.090 A 
ATOM      5  C   UNL     1      -2.490  -3.477  53.809  1.00  0.00     0.151 A 
ATOM      6  N   UNL     1      -3.463  -3.519  52.860  1.00  0.00    -0.216 NA
ATOM      7  Cl  UNL     1      -0.417  -4.696  55.227  1.00  0.00    -0.080 Cl
ENDROOT
BRANCH   1   8
ATOM      8  S   UNL     1      -5.086  -4.682  50.991  1.00  0.00    -0.086 SA
BRANCH   8   9
ATOM      9  C   UNL     1      -6.419  -5.106  52.165  1.00  0.00     0.078 C 
BRANCH   9  10
ATOM     10  C   UNL     1      -7.726  -5.403  51.424  1.00  0.00     0.008 C 
ATOM     11  C   UNL     1      -7.777  -4.675  50.085  1.00  0.00     0.005 C 
ENDBRANCH   9  10
ENDBRANCH   8   9
ENDBRANCH   1   8
BRANCH   5  12
ATOM     12  C   UNL     1      -2.197  -2.183  54.452  1.00  0.00     0.277 C 
ATOM     13  O   UNL     1      -3.049  -1.687  55.237  1.00  0.00    -0.267 OA
ATOM     14  N   UNL     1      -0.930  -1.534  54.258  1.00  0.00    -0.296 N 
ATOM     15  H   UNL     1      -0.141  -2.084  53.851  1.00  0.00     0.172 HD
BRANCH  14  16
ATOM     16  C   UNL     1      -0.670  -0.175  54.632  1.00  0.00     0.190 A 
ATOM     17  N   UNL     1      -1.527   0.850  54.398  1.00  0.00    -0.220 NA
ATOM     18  S   UNL     1       0.760   0.332  55.384  1.00  0.00    -0.096 S 
ATOM     19  C   UNL     1      -1.007   2.021  54.843  1.00  0.00     0.084 A 
ATOM     20  C   UNL     1       0.250   1.931  55.417  1.00  0.00     0.060 A 
ATOM     21  C   UNL     1      -1.650   3.255  54.748  1.00  0.00     0.034 A 
ATOM     22  C   UNL     1       0.917   3.045  55.918  1.00  0.00     0.067 A 
ATOM     23  C   UNL     1      -1.001   4.398  55.245  1.00  0.00     0.049 A 
ATOM     24  C   UNL     1       0.288   4.300  55.834  1.00  0.00     0.120 A 
BRANCH  24  25
ATOM     25  O   UNL     1       0.967   5.417  56.342  1.00  0.00    -0.497 OA
ATOM     26  C   UNL     1       1.747   5.409  57.532  1.00  0.00     0.278 C 
ENDBRANCH  24  25
ENDBRANCH  14  16
ENDBRANCH   5  12
TORSDOF 6
ENDMDL
MODEL 7
REMARK VINA RESULT:    -5.301      4.369      9.523
REMARK INTER + INTRA:          -7.691
REMARK INTER:                  -7.545
REMARK INTRA:                  -0.146
REMARK UNBOUND:                -0.531
REMARK SMILES CCCSc1ncc(Cl)c(C(=O)Nc2nc3ccc(OC)cc3s2)n1
REMARK SMILES IDX 5 1 6 2 7 3 8 4 10 5 25 6 9 7 4 8 3 9 2 10 1 11 11 12 12 13
REMARK SMILES IDX 13 14 14 16 15 17 24 18 16 19 23 20 17 21 22 22 18 23 19 24
REMARK SMILES IDX 20 25 21 26
REMARK H PARENT 13 15
ROOT
ATOM      1  C   UNL     1       0.313   4.717  54.440  1.00  0.00     0.188 A 
ATOM      2  N   UNL     1       1.172   5.535  53.781  1.00  0.00    -0.230 NA
ATOM      3  C   UNL     1       1.193   5.576  52.425  1.00  0.00     0.137 A 
ATOM      4  C   UNL     1       0.317   4.779  51.685  1.00  0.00     0.090 A 
ATOM      5  C   UNL     1      -0.590   3.955  52.383  1.00  0.00     0.151 A 
ATOM      6  N   UNL     1      -0.556   3.940  53.743  1.00  0.00    -0.216 NA
ATOM      7  Cl  UNL     1       0.460   4.774  49.930  1.00  0.00    -0.080 Cl
ENDROOT
BRANCH   1   8
ATOM      8  S   UNL     1       0.311   4.674  56.231  1.00  0.00    -0.086 SA
BRANCH   8   9
ATOM      9  C   UNL     1       1.730   3.532  56.364  1.00  0.00     0.078 C 
BRANCH   9  10
ATOM     10  C   UNL     1       1.263   2.074  56.334  1.00  0.00     0.008 C 
ATOM     11  C   UNL     1       1.820   1.342  55.117  1.00  0.00     0.005 C 
ENDBRANCH   9  10
ENDBRANCH   8   9
ENDBRANCH   1   8
BRANCH   5  12
ATOM     12  C   UNL     1      -1.562   3.082  51.700  1.00  0.00     0.277 C 
ATOM     13  O   UNL     1      -2.218   3.546  50.728  1.00  0.00    -0.267 OA
ATOM     14  N   UNL     1      -1.705   1.703  52.074  1.00  0.00    -0.296 N 
ATOM     15  H   UNL     1      -0.965   1.265  52.668  1.00  0.00     0.172 HD
BRANCH  14  16
ATOM     16  C   UNL     1      -2.789   0.872  51.642  1.00  0.00     0.190 A 
ATOM     17  N   UNL     1      -4.035   1.336  51.374  1.00  0.00    -0.220 NA
ATOM     18  S   UNL     1      -2.664  -0.805  51.444  1.00  0.00    -0.096 S 
ATOM     19  C   UNL     1      -4.857   0.321  51.006  1.00  0.00     0.084 A 
ATOM     20  C   UNL     1      -4.273  -0.935  50.988  1.00  0.00     0.060 A 
ATOM     21  C   UNL     1      -6.200   0.478  50.665  1.00  0.00     0.034 A 
ATOM     22  C   UNL     1      -4.986  -2.077  50.634  1.00  0.00     0.067 A 
ATOM     23  C   UNL     1      -6.945  -0.657  50.304  1.00  0.00     0.049 A 
ATOM     24  C   UNL     1      -6.342  -1.943  50.286  1.00  0.00     0.120 A 
BRANCH  24  25
ATOM     25  O   UNL     1      -7.052  -3.099  49.930  1.00  0.00    -0.497 OA
ATOM     26  C   UNL     1      -7.232  -4.225  50.781  1.00  0.00     0.278 C 
ENDBRANCH  24  25
ENDBRANCH  14  16
ENDBRANCH   5  12
TORSDOF 6
ENDMDL
MODEL 8
REMARK VINA RESULT:    -5.286      2.505      3.706
REMARK INTER + INTRA:          -7.671
REMARK INTER:                  -7.027
REMARK INTRA:                  -0.644
REMARK UNBOUND:                -0.531
REMARK SMILES CCCSc1ncc(Cl)c(C(=O)Nc2nc3ccc(OC)cc3s2)n1
REMARK SMILES IDX 5 1 6 2 7 3 8 4 10 5 25 6 9 7 4 8 3 9 2 10 1 11 11 12 12 13
REMARK SMILES IDX 13 14 14 16 15 17 24 18 16 19 23 20 17 21 22 22 18 23 19 24
REMARK SMILES IDX 20 25 21 26
REMARK H PARENT 13 15
ROOT
ATOM      1  C   UNL     1      -4.690  -3.933  51.623  1.00  0.00     0.188 A 
ATOM      2  N   UNL     1      -5.731  -3.653  50.799  1.00  0.00    -0.230 NA
ATOM      3  C   UNL     1      -5.933  -2.394  50.336  1.00  0.00     0.137 A 
ATOM      4  C   UNL     1      -5.060  -1.365  50.694  1.00  0.00     0.090 A 
ATOM      5  C   UNL     1      -3.967  -1.676  51.528  1.00  0.00     0.151 A 
ATOM      6  N   UNL     1      -3.821  -2.952  51.978  1.00  0.00    -0.216 NA
ATOM      7  Cl  UNL     1      -5.429   0.275  50.168  1.00  0.00    -0.080 Cl
ENDROOT
BRANCH   1   8
ATOM      8  S   UNL     1      -4.449  -5.601  52.229  1.00  0.00    -0.086 SA
BRANCH   8   9
ATOM      9  C   UNL     1      -2.626  -5.491  52.279  1.00  0.00     0.078 C 
BRANCH   9  10
ATOM     10  C   UNL     1      -2.095  -5.857  53.668  1.00  0.00     0.008 C 
ATOM     11  C   UNL     1      -2.857  -5.114  54.762  1.00  0.00     0.005 C 
ENDBRANCH   9  10
ENDBRANCH   8   9
ENDBRANCH   1   8
BRANCH   5  12
ATOM     12  C   UNL     1      -2.981  -0.667  51.959  1.00  0.00     0.277 C 
ATOM     13  O   UNL     1      -1.963  -0.468  51.243  1.00  0.00    -0.267 OA
ATOM     14  N   UNL     1      -3.212   0.136  53.127  1.00  0.00    -0.296 N 
ATOM     15  H   UNL     1      -4.173   0.165  53.535  1.00  0.00     0.172 HD
BRANCH  14  16
ATOM     16  C   UNL     1      -2.201   0.942  53.746  1.00  0.00     0.190 A 
ATOM     17  N   UNL     1      -1.168   0.437  54.465  1.00  0.00    -0.220 NA
ATOM     18  S   UNL     1      -2.189   2.635  53.691  1.00  0.00    -0.096 S 
ATOM     19  C   UNL     1      -0.385   1.435  54.947  1.00  0.00     0.084 A 
ATOM     20  C   UNL     1      -0.795   2.717  54.621  1.00  0.00     0.060 A 
ATOM     21  C   UNL     1       0.757   1.236  55.721  1.00  0.00     0.034 A 
ATOM     22  C   UNL     1      -0.098   3.846  55.042  1.00  0.00     0.067 A 
ATOM     23  C   UNL     1       1.481   2.357  56.162  1.00  0.00     0.049 A 
ATOM     24  C   UNL     1       1.058   3.670  55.825  1.00  0.00     0.120 A 
BRANCH  24  25
ATOM     25  O   UNL     1       1.754   4.813  56.244  1.00  0.00    -0.497 OA
ATOM     26  C   UNL     1       1.556   5.460  57.496  1.00  0.00     0.278 C 
ENDBRANCH  24  25
ENDBRANCH  14  16
ENDBRANCH   5  12
TORSDOF 6
ENDMDL
MODEL 9
REMARK VINA RESULT:    -5.282      2.929      8.608
REMARK INTER + INTRA:          -7.665
REMARK INTER:                  -7.142
REMARK INTRA:                  -0.523
REMARK UNBOUND:                -0.531
REMARK SMILES CCCSc1ncc(Cl)c(C(=O)Nc2nc3ccc(OC)cc3s2)n1
REMARK SMILES IDX 5 1 6 2 7 3 8 4 10 5 25 6 9 7 4 8 3 9 2 10 1 11 11 12 12 13
REMARK SMILES IDX 13 14 14 16 15 17 24 18 16 19 23 20 17 21 22 22 18 23 19 24
REMARK SMILES IDX 20 25 21 26
REMARK H PARENT 13 15
ROOT
ATOM      1  C   UNL     1       0.657   3.934  54.790  1.00  0.00     0.188 A 
ATOM      2  N   UNL     1       1.756   3.520  55.471  1.00  0.00    -0.230 NA
ATOM      3  C   UNL     1       1.913   2.216  55.811  1.00  0.00     0.137 A 
ATOM      4  C   UNL     1       0.945   1.274  55.455  1.00  0.00     0.090 A 
ATOM      5  C   UNL     1      -0.178   1.715  54.724  1.00  0.00     0.151 A 
ATOM      6  N   UNL     1      -0.294   3.036  54.424  1.00  0.00    -0.216 NA
ATOM      7  Cl  UNL     1       1.130  -0.383  56.021  1.00  0.00    -0.080 Cl
ENDROOT
BRANCH   1   8
ATOM      8  S   UNL     1       0.468   5.662  54.360  1.00  0.00    -0.086 SA
BRANCH   8   9
ATOM      9  C   UNL     1       1.469   5.558  52.836  1.00  0.00     0.078 C 
BRANCH   9  10
ATOM     10  C   UNL     1       0.621   5.077  51.656  1.00  0.00     0.008 C 
ATOM     11  C   UNL     1       1.474   4.881  50.408  1.00  0.00     0.005 C 
ENDBRANCH   9  10
ENDBRANCH   8   9
ENDBRANCH   1   8
BRANCH   5  12
ATOM     12  C   UNL     1      -1.253   0.803  54.290  1.00  0.00     0.277 C 
ATOM     13  O   UNL     1      -2.413   0.967  54.755  1.00  0.00    -0.267 OA
ATOM     14  N   UNL     1      -1.010  -0.202  53.294  1.00  0.00    -0.296 N 
ATOM     15  H   UNL     1      -0.141  -0.137  52.717  1.00  0.00     0.172 HD
BRANCH  14  16
ATOM     16  C   UNL     1      -1.917  -1.275  53.012  1.00  0.00     0.190 A 
ATOM     17  N   UNL     1      -1.866  -2.486  53.620  1.00  0.00    -0.220 NA
ATOM     18  S   UNL     1      -3.150  -1.179  51.856  1.00  0.00    -0.096 S 
ATOM     19  C   UNL     1      -2.835  -3.306  53.138  1.00  0.00     0.084 A 
ATOM     20  C   UNL     1      -3.641  -2.755  52.157  1.00  0.00     0.060 A 
ATOM     21  C   UNL     1      -3.042  -4.617  53.566  1.00  0.00     0.034 A 
ATOM     22  C   UNL     1      -4.678  -3.471  51.563  1.00  0.00     0.067 A 
ATOM     23  C   UNL     1      -4.080  -5.364  52.985  1.00  0.00     0.049 A 
ATOM     24  C   UNL     1      -4.905  -4.795  51.979  1.00  0.00     0.120 A 
BRANCH  24  25
ATOM     25  O   UNL     1      -5.952  -5.507  51.376  1.00  0.00    -0.497 OA
ATOM     26  C   UNL     1      -7.305  -5.067  51.337  1.00  0.00     0.278 C 
ENDBRANCH  24  25
ENDBRANCH  14  16
ENDBRANCH   5  12
TORSDOF 6
ENDMDL
MODEL 10
REMARK VINA RESULT:    -5.237      4.614      7.422
REMARK INTER + INTRA:          -7.605
REMARK INTER:                  -7.271
REMARK INTRA:                  -0.334
REMARK UNBOUND:                -0.531
REMARK SMILES CCCSc1ncc(Cl)c(C(=O)Nc2nc3ccc(OC)cc3s2)n1
REMARK SMILES IDX 5 1 6 2 7 3 8 4 10 5 25 6 9 7 4 8 3 9 2 10 1 11 11 12 12 13
REMARK SMILES IDX 13 14 14 16 15 17 24 18 16 19 23 20 17 21 22 22 18 23 19 24
REMARK SMILES IDX 20 25 21 26
REMARK H PARENT 13 15
ROOT
ATOM      1  C   UNL     1       1.282  -2.285  50.818  1.00  0.00     0.188 A 
ATOM      2  N   UNL     1       1.839  -3.385  50.250  1.00  0.00    -0.230 NA
ATOM      3  C   UNL     1       1.817  -4.583  50.886  1.00  0.00     0.137 A 
ATOM      4  C   UNL     1       1.209  -4.704  52.137  1.00  0.00     0.090 A 
ATOM      5  C   UNL     1       0.610  -3.560  52.702  1.00  0.00     0.151 A 
ATOM      6  N   UNL     1       0.675  -2.379  52.029  1.00  0.00    -0.216 NA
ATOM      7  Cl  UNL     1       1.310  -6.248  52.979  1.00  0.00    -0.080 Cl
ENDROOT
BRANCH   1   8
ATOM      8  S   UNL     1       1.330  -0.712  49.963  1.00  0.00    -0.086 SA
BRANCH   8   9
ATOM      9  C   UNL     1       1.428   0.293  51.486  1.00  0.00     0.078 C 
BRANCH   9  10
ATOM     10  C   UNL     1       0.822   1.682  51.263  1.00  0.00     0.008 C 
ATOM     11  C   UNL     1       1.908   2.752  51.198  1.00  0.00     0.005 C 
ENDBRANCH   9  10
ENDBRANCH   8   9
ENDBRANCH   1   8
BRANCH   5  12
ATOM     12  C   UNL     1      -0.066  -3.580  54.013  1.00  0.00     0.277 C 
ATOM     13  O   UNL     1       0.606  -3.322  55.047  1.00  0.00    -0.267 OA
ATOM     14  N   UNL     1      -1.482  -3.806  54.108  1.00  0.00    -0.296 N 
ATOM     15  H   UNL     1      -2.062  -3.729  53.243  1.00  0.00     0.172 HD
BRANCH  14  16
ATOM     16  C   UNL     1      -2.157  -4.093  55.339  1.00  0.00     0.190 A 
ATOM     17  N   UNL     1      -1.664  -4.917  56.297  1.00  0.00    -0.220 NA
ATOM     18  S   UNL     1      -3.678  -3.466  55.741  1.00  0.00    -0.096 S 
ATOM     19  C   UNL     1      -2.528  -5.014  57.338  1.00  0.00     0.084 A 
ATOM     20  C   UNL     1      -3.696  -4.281  57.208  1.00  0.00     0.060 A 
ATOM     21  C   UNL     1      -2.305  -5.785  58.479  1.00  0.00     0.034 A 
ATOM     22  C   UNL     1      -4.682  -4.279  58.191  1.00  0.00     0.067 A 
ATOM     23  C   UNL     1      -3.282  -5.802  59.487  1.00  0.00     0.049 A 
ATOM     24  C   UNL     1      -4.478  -5.049  59.349  1.00  0.00     0.120 A 
BRANCH  24  25
ATOM     25  O   UNL     1      -5.476  -5.040  60.335  1.00  0.00    -0.497 OA
ATOM     26  C   UNL     1      -6.611  -4.180  60.321  1.00  0.00     0.278 C 
ENDBRANCH  24  25
ENDBRANCH  14  16
ENDBRANCH   5  12
TORSDOF 6
ENDMDL
