MODEL 1
REMARK VINA RESULT:    -5.754      0.000      0.000
REMARK INTER + INTRA:          -8.317
REMARK INTER:                  -7.773
REMARK INTRA:                  -0.545
REMARK UNBOUND:                -0.545
REMARK SMILES CCCSc1ncc(Cl)c(C(=O)Nc2nc3ccc(OC)cc3s2)n1
REMARK SMILES IDX 5 1 6 2 7 3 8 4 10 5 25 6 9 7 4 8 3 9 2 10 1 11 11 12 12 13
REMARK SMILES IDX 13 14 14 16 15 17 24 18 16 19 23 20 17 21 22 22 18 23 19 24
REMARK SMILES IDX 20 25 21 26
REMARK H PARENT 13 15
ROOT
ATOM      1  C   UNL     1      -4.675  -4.797  52.396  1.00  0.00     0.188 A 
ATOM      2  N   UNL     1      -4.147  -6.041  52.525  1.00  0.00    -0.230 NA
ATOM      3  C   UNL     1      -3.024  -6.248  53.258  1.00  0.00     0.137 A 
ATOM      4  C   UNL     1      -2.397  -5.178  53.901  1.00  0.00     0.090 A 
ATOM      5  C   UNL     1      -2.972  -3.896  53.781  1.00  0.00     0.151 A 
ATOM      6  N   UNL     1      -4.090  -3.743  53.020  1.00  0.00    -0.216 NA
ATOM      7  Cl  UNL     1      -0.877  -5.472  54.740  1.00  0.00    -0.080 Cl
ENDROOT
BRANCH   1   8
ATOM      8  S   UNL     1      -6.153  -4.548  51.416  1.00  0.00    -0.086 SA
BRANCH   8   9
ATOM      9  C   UNL     1      -5.601  -2.963  50.695  1.00  0.00     0.078 C 
BRANCH   9  10
ATOM     10  C   UNL     1      -6.775  -2.212  50.061  1.00  0.00     0.008 C 
ATOM     11  C   UNL     1      -6.687  -0.715  50.340  1.00  0.00     0.005 C 
ENDBRANCH   9  10
ENDBRANCH   8   9
ENDBRANCH   1   8
BRANCH   5  12
ATOM     12  C   UNL     1      -2.397  -2.702  54.426  1.00  0.00     0.277 C 
ATOM     13  O   UNL     1      -2.881  -2.311  55.522  1.00  0.00    -0.267 OA
ATOM     14  N   UNL     1      -1.253  -2.040  53.864  1.00  0.00    -0.296 N 
ATOM     15  H   UNL     1      -0.695  -2.536  53.133  1.00  0.00     0.172 HD
BRANCH  14  16
ATOM     16  C   UNL     1      -0.802  -0.745  54.281  1.00  0.00     0.190 A 
ATOM     17  N   UNL     1       0.306  -0.538  55.034  1.00  0.00    -0.220 NA
ATOM     18  S   UNL     1      -1.621   0.693  53.918  1.00  0.00    -0.096 S 
ATOM     19  C   UNL     1       0.471   0.785  55.291  1.00  0.00     0.084 A 
ATOM     20  C   UNL     1      -0.497   1.617  54.755  1.00  0.00     0.060 A 
ATOM     21  C   UNL     1       1.522   1.317  56.038  1.00  0.00     0.034 A 
ATOM     22  C   UNL     1      -0.468   2.997  54.933  1.00  0.00     0.067 A 
ATOM     23  C   UNL     1       1.578   2.707  56.234  1.00  0.00     0.049 A 
ATOM     24  C   UNL     1       0.583   3.556  55.683  1.00  0.00     0.120 A 
BRANCH  24  25
ATOM     25  O   UNL     1       0.605   4.948  55.856  1.00  0.00    -0.497 OA
ATOM     26  C   UNL     1       0.319   5.890  54.828  1.00  0.00     0.278 C 
ENDBRANCH  24  25
ENDBRANCH  14  16
ENDBRANCH   5  12
TORSDOF 6
ENDMDL
MODEL 2
REMARK VINA RESULT:    -5.583      4.809      7.101
REMARK INTER + INTRA:          -8.085
REMARK INTER:                  -7.552
REMARK INTRA:                  -0.534
REMARK UNBOUND:                -0.545
REMARK SMILES CCCSc1ncc(Cl)c(C(=O)Nc2nc3ccc(OC)cc3s2)n1
REMARK SMILES IDX 5 1 6 2 7 3 8 4 10 5 25 6 9 7 4 8 3 9 2 10 1 11 11 12 12 13
REMARK SMILES IDX 13 14 14 16 15 17 24 18 16 19 23 20 17 21 22 22 18 23 19 24
REMARK SMILES IDX 20 25 21 26
REMARK H PARENT 13 15
ROOT
ATOM      1  C   UNL     1       0.611  -2.983  50.666  1.00  0.00     0.188 A 
ATOM      2  N   UNL     1       1.629  -3.735  50.177  1.00  0.00    -0.230 NA
ATOM      3  C   UNL     1       1.931  -4.939  50.725  1.00  0.00     0.137 A 
ATOM      4  C   UNL     1       1.188  -5.427  51.802  1.00  0.00     0.090 A 
ATOM      5  C   UNL     1       0.116  -4.647  52.282  1.00  0.00     0.151 A 
ATOM      6  N   UNL     1      -0.133  -3.440  51.706  1.00  0.00    -0.216 NA
ATOM      7  Cl  UNL     1       1.691  -6.935  52.560  1.00  0.00    -0.080 Cl
ENDROOT
BRANCH   1   8
ATOM      8  S   UNL     1       0.236  -1.394  49.930  1.00  0.00    -0.086 SA
BRANCH   8   9
ATOM      9  C   UNL     1      -1.576  -1.621  49.973  1.00  0.00     0.078 C 
BRANCH   9  10
ATOM     10  C   UNL     1      -2.264  -0.408  50.603  1.00  0.00     0.008 C 
ATOM     11  C   UNL     1      -1.967  -0.321  52.097  1.00  0.00     0.005 C 
ENDBRANCH   9  10
ENDBRANCH   8   9
ENDBRANCH   1   8
BRANCH   5  12
ATOM     12  C   UNL     1      -0.737  -5.073  53.407  1.00  0.00     0.277 C 
ATOM     13  O   UNL     1      -1.277  -6.211  53.364  1.00  0.00    -0.267 OA
ATOM     14  N   UNL     1      -0.888  -4.245  54.572  1.00  0.00    -0.296 N 
ATOM     15  H   UNL     1      -0.219  -3.456  54.718  1.00  0.00     0.172 HD
BRANCH  14  16
ATOM     16  C   UNL     1      -1.886  -4.465  55.576  1.00  0.00     0.190 A 
ATOM     17  N   UNL     1      -1.628  -5.014  56.789  1.00  0.00    -0.220 NA
ATOM     18  S   UNL     1      -3.527  -4.102  55.362  1.00  0.00    -0.096 S 
ATOM     19  C   UNL     1      -2.767  -5.118  57.520  1.00  0.00     0.084 A 
ATOM     20  C   UNL     1      -3.916  -4.665  56.894  1.00  0.00     0.060 A 
ATOM     21  C   UNL     1      -2.828  -5.640  58.813  1.00  0.00     0.034 A 
ATOM     22  C   UNL     1      -5.162  -4.707  57.514  1.00  0.00     0.067 A 
ATOM     23  C   UNL     1      -4.073  -5.696  59.462  1.00  0.00     0.049 A 
ATOM     24  C   UNL     1      -5.248  -5.229  58.816  1.00  0.00     0.120 A 
BRANCH  24  25
ATOM     25  O   UNL     1      -6.507  -5.267  59.433  1.00  0.00    -0.497 OA
ATOM     26  C   UNL     1      -6.980  -4.289  60.353  1.00  0.00     0.278 C 
ENDBRANCH  24  25
ENDBRANCH  14  16
ENDBRANCH   5  12
TORSDOF 6
ENDMDL
MODEL 3
REMARK VINA RESULT:    -5.461      3.304      4.284
REMARK INTER + INTRA:          -7.921
REMARK INTER:                  -7.426
REMARK INTRA:                  -0.495
REMARK UNBOUND:                -0.545
REMARK SMILES CCCSc1ncc(Cl)c(C(=O)Nc2nc3ccc(OC)cc3s2)n1
REMARK SMILES IDX 5 1 6 2 7 3 8 4 10 5 25 6 9 7 4 8 3 9 2 10 1 11 11 12 12 13
REMARK SMILES IDX 13 14 14 16 15 17 24 18 16 19 23 20 17 21 22 22 18 23 19 24
REMARK SMILES IDX 20 25 21 26
REMARK H PARENT 13 15
ROOT
ATOM      1  C   UNL     1      -3.655  -4.405  56.348  1.00  0.00     0.188 A 
ATOM      2  N   UNL     1      -4.381  -5.101  55.437  1.00  0.00    -0.230 NA
ATOM      3  C   UNL     1      -4.386  -4.741  54.129  1.00  0.00     0.137 A 
ATOM      4  C   UNL     1      -3.633  -3.647  53.698  1.00  0.00     0.090 A 
ATOM      5  C   UNL     1      -2.861  -2.950  54.651  1.00  0.00     0.151 A 
ATOM      6  N   UNL     1      -2.906  -3.344  55.952  1.00  0.00    -0.216 NA
ATOM      7  Cl  UNL     1      -3.764  -3.141  52.016  1.00  0.00    -0.080 Cl
ENDROOT
BRANCH   1   8
ATOM      8  S   UNL     1      -3.671  -4.895  58.070  1.00  0.00    -0.086 SA
BRANCH   8   9
ATOM      9  C   UNL     1      -5.463  -5.248  58.119  1.00  0.00     0.078 C 
BRANCH   9  10
ATOM     10  C   UNL     1      -6.232  -4.086  58.753  1.00  0.00     0.008 C 
ATOM     11  C   UNL     1      -5.910  -3.959  60.239  1.00  0.00     0.005 C 
ENDBRANCH   9  10
ENDBRANCH   8   9
ENDBRANCH   1   8
BRANCH   5  12
ATOM     12  C   UNL     1      -2.023  -1.788  54.302  1.00  0.00     0.277 C 
ATOM     13  O   UNL     1      -0.777  -1.946  54.201  1.00  0.00    -0.267 OA
ATOM     14  N   UNL     1      -2.617  -0.516  53.999  1.00  0.00    -0.296 N 
ATOM     15  H   UNL     1      -3.642  -0.474  53.803  1.00  0.00     0.172 HD
BRANCH  14  16
ATOM     16  C   UNL     1      -1.871   0.704  53.905  1.00  0.00     0.190 A 
ATOM     17  N   UNL     1      -1.794   1.620  54.902  1.00  0.00    -0.220 NA
ATOM     18  S   UNL     1      -1.019   1.177  52.520  1.00  0.00    -0.096 S 
ATOM     19  C   UNL     1      -1.037   2.680  54.522  1.00  0.00     0.084 A 
ATOM     20  C   UNL     1      -0.525   2.612  53.238  1.00  0.00     0.060 A 
ATOM     21  C   UNL     1      -0.767   3.786  55.329  1.00  0.00     0.034 A 
ATOM     22  C   UNL     1       0.269   3.622  52.702  1.00  0.00     0.067 A 
ATOM     23  C   UNL     1       0.030   4.822  54.815  1.00  0.00     0.049 A 
ATOM     24  C   UNL     1       0.554   4.746  53.497  1.00  0.00     0.120 A 
BRANCH  24  25
ATOM     25  O   UNL     1       1.354   5.760  52.950  1.00  0.00    -0.497 OA
ATOM     26  C   UNL     1       1.924   5.716  51.646  1.00  0.00     0.278 C 
ENDBRANCH  24  25
ENDBRANCH  14  16
ENDBRANCH   5  12
TORSDOF 6
ENDMDL
MODEL 4
REMARK VINA RESULT:    -5.416      4.312      7.438
REMARK INTER + INTRA:          -7.860
REMARK INTER:                  -7.326
REMARK INTRA:                  -0.534
REMARK UNBOUND:                -0.545
REMARK SMILES CCCSc1ncc(Cl)c(C(=O)Nc2nc3ccc(OC)cc3s2)n1
REMARK SMILES IDX 5 1 6 2 7 3 8 4 10 5 25 6 9 7 4 8 3 9 2 10 1 11 11 12 12 13
REMARK SMILES IDX 13 14 14 16 15 17 24 18 16 19 23 20 17 21 22 22 18 23 19 24
REMARK SMILES IDX 20 25 21 26
REMARK H PARENT 13 15
ROOT
ATOM      1  C   UNL     1       1.390  -2.316  50.781  1.00  0.00     0.188 A 
ATOM      2  N   UNL     1       1.861  -3.476  50.256  1.00  0.00    -0.230 NA
ATOM      3  C   UNL     1       1.662  -4.658  50.890  1.00  0.00     0.137 A 
ATOM      4  C   UNL     1       0.957  -4.700  52.095  1.00  0.00     0.090 A 
ATOM      5  C   UNL     1       0.449  -3.491  52.614  1.00  0.00     0.151 A 
ATOM      6  N   UNL     1       0.693  -2.331  51.946  1.00  0.00    -0.216 NA
ATOM      7  Cl  UNL     1       0.826  -6.237  52.943  1.00  0.00    -0.080 Cl
ENDROOT
BRANCH   1   8
ATOM      8  S   UNL     1       1.674  -0.766  49.930  1.00  0.00    -0.086 SA
BRANCH   8   9
ATOM      9  C   UNL     1       0.593   0.218  51.026  1.00  0.00     0.078 C 
BRANCH   9  10
ATOM     10  C   UNL     1       1.346   1.423  51.597  1.00  0.00     0.008 C 
ATOM     11  C   UNL     1       1.931   1.106  52.969  1.00  0.00     0.005 C 
ENDBRANCH   9  10
ENDBRANCH   8   9
ENDBRANCH   1   8
BRANCH   5  12
ATOM     12  C   UNL     1      -0.316  -3.424  53.873  1.00  0.00     0.277 C 
ATOM     13  O   UNL     1       0.087  -2.659  54.789  1.00  0.00    -0.267 OA
ATOM     14  N   UNL     1      -1.546  -4.151  54.027  1.00  0.00    -0.296 N 
ATOM     15  H   UNL     1      -2.010  -4.539  53.175  1.00  0.00     0.172 HD
BRANCH  14  16
ATOM     16  C   UNL     1      -2.201  -4.339  55.287  1.00  0.00     0.190 A 
ATOM     17  N   UNL     1      -1.682  -5.066  56.308  1.00  0.00    -0.220 NA
ATOM     18  S   UNL     1      -3.730  -3.708  55.651  1.00  0.00    -0.096 S 
ATOM     19  C   UNL     1      -2.533  -5.086  57.364  1.00  0.00     0.084 A 
ATOM     20  C   UNL     1      -3.717  -4.390  57.184  1.00  0.00     0.060 A 
ATOM     21  C   UNL     1      -2.281  -5.747  58.566  1.00  0.00     0.034 A 
ATOM     22  C   UNL     1      -4.692  -4.319  58.175  1.00  0.00     0.067 A 
ATOM     23  C   UNL     1      -3.248  -5.694  59.585  1.00  0.00     0.049 A 
ATOM     24  C   UNL     1      -4.460  -4.978  59.395  1.00  0.00     0.120 A 
BRANCH  24  25
ATOM     25  O   UNL     1      -5.447  -4.900  60.388  1.00  0.00    -0.497 OA
ATOM     26  C   UNL     1      -6.845  -4.833  60.127  1.00  0.00     0.278 C 
ENDBRANCH  24  25
ENDBRANCH  14  16
ENDBRANCH   5  12
TORSDOF 6
ENDMDL
MODEL 5
REMARK VINA RESULT:    -5.388      2.782      8.849
REMARK INTER + INTRA:          -7.822
REMARK INTER:                  -7.263
REMARK INTRA:                  -0.559
REMARK UNBOUND:                -0.545
REMARK SMILES CCCSc1ncc(Cl)c(C(=O)Nc2nc3ccc(OC)cc3s2)n1
REMARK SMILES IDX 5 1 6 2 7 3 8 4 10 5 25 6 9 7 4 8 3 9 2 10 1 11 11 12 12 13
REMARK SMILES IDX 13 14 14 16 15 17 24 18 16 19 23 20 17 21 22 22 18 23 19 24
REMARK SMILES IDX 20 25 21 26
REMARK H PARENT 13 15
ROOT
ATOM      1  C   UNL     1       0.970   2.663  54.192  1.00  0.00     0.188 A 
ATOM      2  N   UNL     1       1.924   1.952  54.845  1.00  0.00    -0.230 NA
ATOM      3  C   UNL     1       1.731   0.644  55.148  1.00  0.00     0.137 A 
ATOM      4  C   UNL     1       0.545   0.004  54.782  1.00  0.00     0.090 A 
ATOM      5  C   UNL     1      -0.425   0.748  54.079  1.00  0.00     0.151 A 
ATOM      6  N   UNL     1      -0.187   2.061  53.816  1.00  0.00    -0.216 NA
ATOM      7  Cl  UNL     1       0.288  -1.659  55.301  1.00  0.00    -0.080 Cl
ENDROOT
BRANCH   1   8
ATOM      8  S   UNL     1       1.243   4.392  53.811  1.00  0.00    -0.086 SA
BRANCH   8   9
ATOM      9  C   UNL     1      -0.122   5.004  54.859  1.00  0.00     0.078 C 
BRANCH   9  10
ATOM     10  C   UNL     1       0.035   4.515  56.302  1.00  0.00     0.008 C 
ATOM     11  C   UNL     1       1.226   5.182  56.983  1.00  0.00     0.005 C 
ENDBRANCH   9  10
ENDBRANCH   8   9
ENDBRANCH   1   8
BRANCH   5  12
ATOM     12  C   UNL     1      -1.707   0.168  53.637  1.00  0.00     0.277 C 
ATOM     13  O   UNL     1      -2.747   0.412  54.306  1.00  0.00    -0.267 OA
ATOM     14  N   UNL     1      -1.791  -0.593  52.422  1.00  0.00    -0.296 N 
ATOM     15  H   UNL     1      -1.000  -0.541  51.741  1.00  0.00     0.172 HD
BRANCH  14  16
ATOM     16  C   UNL     1      -2.925  -1.393  52.065  1.00  0.00     0.190 A 
ATOM     17  N   UNL     1      -3.199  -2.602  52.614  1.00  0.00    -0.220 NA
ATOM     18  S   UNL     1      -4.052  -0.945  50.882  1.00  0.00    -0.096 S 
ATOM     19  C   UNL     1      -4.322  -3.133  52.068  1.00  0.00     0.084 A 
ATOM     20  C   UNL     1      -4.929  -2.360  51.093  1.00  0.00     0.060 A 
ATOM     21  C   UNL     1      -4.864  -4.368  52.426  1.00  0.00     0.034 A 
ATOM     22  C   UNL     1      -6.088  -2.769  50.438  1.00  0.00     0.067 A 
ATOM     23  C   UNL     1      -6.033  -4.807  51.782  1.00  0.00     0.049 A 
ATOM     24  C   UNL     1      -6.652  -4.010  50.783  1.00  0.00     0.120 A 
BRANCH  24  25
ATOM     25  O   UNL     1      -7.820  -4.414  50.119  1.00  0.00    -0.497 OA
ATOM     26  C   UNL     1      -8.207  -5.771  49.930  1.00  0.00     0.278 C 
ENDBRANCH  24  25
ENDBRANCH  14  16
ENDBRANCH   5  12
TORSDOF 6
ENDMDL
