ligand-2BMF
     RDKit          3D

 40 42  0  0  0  0  0  0  0  0999 V2000
   -5.8180    0.3320   50.6630 C   0  0  0  0  0  0  0  0  0  0  0  0
   -6.5450   -0.9410   50.2400 C   0  0  0  0  0  0  0  0  0  0  0  0
   -5.5780   -2.1230   50.1430 C   0  0  0  0  0  0  0  0  0  0  0  0
   -6.3910   -3.6750   50.6600 S   0  0  0  0  0  0  0  0  0  0  0  0
   -5.0860   -4.1680   51.7830 C   0  0  0  0  0  0  0  0  0  0  0  0
   -4.8020   -5.4830   51.9600 N   0  0  0  0  0  0  0  0  0  0  0  0
   -3.8130   -5.8750   52.8010 C   0  0  0  0  0  0  0  0  0  0  0  0
   -3.0750   -4.9250   53.5090 C   0  0  0  0  0  0  0  0  0  0  0  0
   -1.7230   -5.4710   54.4970 Cl  0  0  0  0  0  0  0  0  0  0  0  0
   -3.3990   -3.5630   53.3370 C   0  0  0  0  0  0  0  0  0  0  0  0
   -2.6900   -2.4800   54.0430 C   0  0  0  0  0  0  0  0  0  0  0  0
   -2.9580   -2.2670   55.2560 O   0  0  0  0  0  0  0  0  0  0  0  0
   -1.6510   -1.7320   53.3910 N   0  0  0  0  0  0  0  0  0  0  0  0
   -1.1040   -0.5160   53.9130 C   0  0  0  0  0  0  0  0  0  0  0  0
   -0.0100   -0.4620   54.7140 N   0  0  0  0  0  0  0  0  0  0  0  0
    0.2620    0.8190   55.0690 C   0  0  0  0  0  0  0  0  0  0  0  0
    1.3270    1.2010   55.8860 C   0  0  0  0  0  0  0  0  0  0  0  0
    1.4990    2.5630   56.1820 C   0  0  0  0  0  0  0  0  0  0  0  0
    0.6050    3.5360   55.6600 C   0  0  0  0  0  0  0  0  0  0  0  0
    0.7450    4.9050   55.9320 O   0  0  0  0  0  0  0  0  0  0  0  0
    0.4760    5.9410   54.9950 C   0  0  0  0  0  0  0  0  0  0  0  0
   -0.4610    3.1270   54.8390 C   0  0  0  0  0  0  0  0  0  0  0  0
   -0.6070    1.7710   54.5630 C   0  0  0  0  0  0  0  0  0  0  0  0
   -1.7750    1.0130   53.6270 S   0  0  0  0  0  0  0  0  0  0  0  0
   -4.3900   -3.2250   52.4680 N   0  0  0  0  0  0  0  0  0  0  0  0
   -5.7859    0.3882   51.7611 H   0  0  0  0  0  0  0  0  0  0  0  0
   -4.7921    0.3174   50.2664 H   0  0  0  0  0  0  0  0  0  0  0  0
   -6.3519    1.2082   50.2664 H   0  0  0  0  0  0  0  0  0  0  0  0
   -7.3230   -1.1736   50.9821 H   0  0  0  0  0  0  0  0  0  0  0  0
   -6.9924   -0.7742   49.2491 H   0  0  0  0  0  0  0  0  0  0  0  0
   -5.2368   -2.2246   49.1022 H   0  0  0  0  0  0  0  0  0  0  0  0
   -4.7244   -1.9343   50.8107 H   0  0  0  0  0  0  0  0  0  0  0  0
   -3.5916   -6.9453   52.9257 H   0  0  0  0  0  0  0  0  0  0  0  0
   -1.2460   -2.1050   52.5030 H   0  0  0  0  0  0  0  0  0  0  0  0
    2.0196    0.4485   56.2910 H   0  0  0  0  0  0  0  0  0  0  0  0
    2.3340    2.8796   56.8243 H   0  0  0  0  0  0  0  0  0  0  0  0
    0.2350    6.8692   55.5338 H   0  0  0  0  0  0  0  0  0  0  0  0
    1.3618    6.1032   54.3633 H   0  0  0  0  0  0  0  0  0  0  0  0
   -0.3768    5.6517   54.3633 H   0  0  0  0  0  0  0  0  0  0  0  0
   -1.1646    3.8635   54.4237 H   0  0  0  0  0  0  0  0  0  0  0  0
  1  2  1  0
  2  3  1  0
  3  4  1  0
  4  5  1  0
  5  6  2  0
  6  7  1  0
  7  8  2  0
  8  9  1  0
  8 10  1  0
 10 11  1  0
 11 12  2  0
 11 13  1  0
 13 14  1  0
 14 15  2  0
 15 16  1  0
 16 17  2  0
 17 18  1  0
 18 19  2  0
 19 20  1  0
 20 21  1  0
 19 22  1  0
 22 23  2  0
 23 24  1  0
 10 25  2  0
 25  5  1  0
 24 14  1  0
 23 16  1  0
  1 26  1  0
  1 27  1  0
  1 28  1  0
  2 29  1  0
  2 30  1  0
  3 31  1  0
  3 32  1  0
  7 33  1  0
 13 34  1  0
 17 35  1  0
 18 36  1  0
 21 37  1  0
 21 38  1  0
 21 39  1  0
 22 40  1  0
M  END
>  <meeko>  (1) 
{"is_sidechain": [false], "free_energy": -5.494, "intermolecular_energy": -7.421, "internal_energy": -0.613}

$$$$
ligand-2BMF
     RDKit          3D

 40 42  0  0  0  0  0  0  0  0999 V2000
   -5.6590   -4.0280   59.9740 C   0  0  0  0  0  0  0  0  0  0  0  0
   -6.2090   -4.6580   58.6980 C   0  0  0  0  0  0  0  0  0  0  0  0
   -5.2190   -5.6680   58.1100 C   0  0  0  0  0  0  0  0  0  0  0  0
   -3.5200   -4.9990   58.1220 S   0  0  0  0  0  0  0  0  0  0  0  0
   -3.5380   -4.4950   56.4030 C   0  0  0  0  0  0  0  0  0  0  0  0
   -4.2790   -5.1850   55.5000 N   0  0  0  0  0  0  0  0  0  0  0  0
   -4.3110   -4.8140   54.1960 C   0  0  0  0  0  0  0  0  0  0  0  0
   -3.5700   -3.7140   53.7600 C   0  0  0  0  0  0  0  0  0  0  0  0
   -3.7350   -3.1950   52.0850 Cl  0  0  0  0  0  0  0  0  0  0  0  0
   -2.7820   -3.0230   54.7030 C   0  0  0  0  0  0  0  0  0  0  0  0
   -1.9550   -1.8550   54.3480 C   0  0  0  0  0  0  0  0  0  0  0  0
   -0.7030   -1.9900   54.2980 O   0  0  0  0  0  0  0  0  0  0  0  0
   -2.5620   -0.6060   53.9820 N   0  0  0  0  0  0  0  0  0  0  0  0
   -1.8380    0.6270   53.8770 C   0  0  0  0  0  0  0  0  0  0  0  0
   -1.6220    1.4670   54.9190 N   0  0  0  0  0  0  0  0  0  0  0  0
   -0.9270    2.5610   54.5170 C   0  0  0  0  0  0  0  0  0  0  0  0
   -0.5470    3.6060   55.3580 C   0  0  0  0  0  0  0  0  0  0  0  0
    0.1690    4.6870   54.8170 C   0  0  0  0  0  0  0  0  0  0  0  0
    0.5020    4.7150   53.4360 C   0  0  0  0  0  0  0  0  0  0  0  0
    1.2170    5.7750   52.8590 O   0  0  0  0  0  0  0  0  0  0  0  0
    1.9310    5.6870   51.6310 C   0  0  0  0  0  0  0  0  0  0  0  0
    0.1090    3.6500   52.6070 C   0  0  0  0  0  0  0  0  0  0  0  0
   -0.6010    2.5930   53.1710 C   0  0  0  0  0  0  0  0  0  0  0  0
   -1.1900    1.2100   52.4250 S   0  0  0  0  0  0  0  0  0  0  0  0
   -2.8000   -3.4280   56.0020 N   0  0  0  0  0  0  0  0  0  0  0  0
   -6.0973   -4.5300   60.8492 H   0  0  0  0  0  0  0  0  0  0  0  0
   -4.5650   -4.1405   59.9964 H   0  0  0  0  0  0  0  0  0  0  0  0
   -5.9182   -2.9592   59.9964 H   0  0  0  0  0  0  0  0  0  0  0  0
   -7.1527   -5.1734   58.9298 H   0  0  0  0  0  0  0  0  0  0  0  0
   -6.3750   -3.8608   57.9585 H   0  0  0  0  0  0  0  0  0  0  0  0
   -5.2470   -6.5902   58.7090 H   0  0  0  0  0  0  0  0  0  0  0  0
   -5.5069   -5.8767   57.0691 H   0  0  0  0  0  0  0  0  0  0  0  0
   -4.9228   -5.3816   53.4794 H   0  0  0  0  0  0  0  0  0  0  0  0
   -3.5810   -0.5920   53.7480 H   0  0  0  0  0  0  0  0  0  0  0  0
   -0.8035    3.5845   56.4275 H   0  0  0  0  0  0  0  0  0  0  0  0
    0.4745    5.5191   55.4684 H   0  0  0  0  0  0  0  0  0  0  0  0
    3.0031    5.5549   51.8389 H   0  0  0  0  0  0  0  0  0  0  0  0
    1.5610    4.8277   51.0525 H   0  0  0  0  0  0  0  0  0  0  0  0
    1.7808    6.6105   51.0525 H   0  0  0  0  0  0  0  0  0  0  0  0
    0.3570    3.6515   51.5353 H   0  0  0  0  0  0  0  0  0  0  0  0
  1  2  1  0
  2  3  1  0
  3  4  1  0
  4  5  1  0
  5  6  2  0
  6  7  1  0
  7  8  2  0
  8  9  1  0
  8 10  1  0
 10 11  1  0
 11 12  2  0
 11 13  1  0
 13 14  1  0
 14 15  2  0
 15 16  1  0
 16 17  2  0
 17 18  1  0
 18 19  2  0
 19 20  1  0
 20 21  1  0
 19 22  1  0
 22 23  2  0
 23 24  1  0
 10 25  2  0
 25  5  1  0
 24 14  1  0
 23 16  1  0
  1 26  1  0
  1 27  1  0
  1 28  1  0
  2 29  1  0
  2 30  1  0
  3 31  1  0
  3 32  1  0
  7 33  1  0
 13 34  1  0
 17 35  1  0
 18 36  1  0
 21 37  1  0
 21 38  1  0
 21 39  1  0
 22 40  1  0
M  END
>  <meeko>  (2) 
{"is_sidechain": [false], "free_energy": -5.35, "intermolecular_energy": -7.316, "internal_energy": -0.524}

$$$$
ligand-2BMF
     RDKit          3D

 40 42  0  0  0  0  0  0  0  0999 V2000
   -7.4260   -4.7900   50.6260 C   0  0  0  0  0  0  0  0  0  0  0  0
   -6.6110   -5.0970   51.8780 C   0  0  0  0  0  0  0  0  0  0  0  0
   -5.2920   -4.3180   51.8830 C   0  0  0  0  0  0  0  0  0  0  0  0
   -4.1050   -5.0540   53.0610 S   0  0  0  0  0  0  0  0  0  0  0  0
   -2.6480   -4.4570   52.2070 C   0  0  0  0  0  0  0  0  0  0  0  0
   -2.1350   -5.1590   51.1660 N   0  0  0  0  0  0  0  0  0  0  0  0
   -1.0360   -4.7190   50.5030 C   0  0  0  0  0  0  0  0  0  0  0  0
   -0.4090   -3.5330   50.8920 C   0  0  0  0  0  0  0  0  0  0  0  0
    0.9400   -2.9370   49.9300 Cl  0  0  0  0  0  0  0  0  0  0  0  0
   -0.9360   -2.8280   51.9940 C   0  0  0  0  0  0  0  0  0  0  0  0
   -0.3460   -1.5720   52.4920 C   0  0  0  0  0  0  0  0  0  0  0  0
    0.7740   -1.6140   53.0690 O   0  0  0  0  0  0  0  0  0  0  0  0
   -0.9900   -0.3100   52.2550 N   0  0  0  0  0  0  0  0  0  0  0  0
   -0.6200    0.9050   52.9180 C   0  0  0  0  0  0  0  0  0  0  0  0
   -0.3360    2.0620   52.2720 N   0  0  0  0  0  0  0  0  0  0  0  0
    0.0010    3.0350   53.1550 C   0  0  0  0  0  0  0  0  0  0  0  0
    0.3440    4.3390   52.7980 C   0  0  0  0  0  0  0  0  0  0  0  0
    0.6770    5.2540   53.8110 C   0  0  0  0  0  0  0  0  0  0  0  0
    0.6650    4.8600   55.1750 C   0  0  0  0  0  0  0  0  0  0  0  0
    0.9890    5.7440   56.2140 O   0  0  0  0  0  0  0  0  0  0  0  0
    1.5170    5.3440   57.4740 C   0  0  0  0  0  0  0  0  0  0  0  0
    0.3160    3.5400   55.5110 C   0  0  0  0  0  0  0  0  0  0  0  0
   -0.0090    2.6550   54.4870 C   0  0  0  0  0  0  0  0  0  0  0  0
   -0.4550    1.0410   54.5990 S   0  0  0  0  0  0  0  0  0  0  0  0
   -2.0500   -3.3060   52.6110 N   0  0  0  0  0  0  0  0  0  0  0  0
   -8.4187   -4.4161   50.9172 H   0  0  0  0  0  0  0  0  0  0  0  0
   -6.9070   -4.0258   50.0289 H   0  0  0  0  0  0  0  0  0  0  0  0
   -7.5402   -5.7067   50.0289 H   0  0  0  0  0  0  0  0  0  0  0  0
   -7.1970   -4.8167   52.7657 H   0  0  0  0  0  0  0  0  0  0  0  0
   -6.3812   -6.1727   51.8899 H   0  0  0  0  0  0  0  0  0  0  0  0
   -4.8572   -4.3394   50.8728 H   0  0  0  0  0  0  0  0  0  0  0  0
   -5.4967   -3.2821   52.1912 H   0  0  0  0  0  0  0  0  0  0  0  0
   -0.6377   -5.2979   49.6567 H   0  0  0  0  0  0  0  0  0  0  0  0
   -1.7490   -0.2610   51.5380 H   0  0  0  0  0  0  0  0  0  0  0  0
    0.3536    4.6458   51.7417 H   0  0  0  0  0  0  0  0  0  0  0  0
    0.9497    6.2858   53.5446 H   0  0  0  0  0  0  0  0  0  0  0  0
    0.9213    5.7953   58.2811 H   0  0  0  0  0  0  0  0  0  0  0  0
    1.4765    4.2479   57.5573 H   0  0  0  0  0  0  0  0  0  0  0  0
    2.5612    5.6797   57.5573 H   0  0  0  0  0  0  0  0  0  0  0  0
    0.3001    3.2135   56.5613 H   0  0  0  0  0  0  0  0  0  0  0  0
  1  2  1  0
  2  3  1  0
  3  4  1  0
  4  5  1  0
  5  6  2  0
  6  7  1  0
  7  8  2  0
  8  9  1  0
  8 10  1  0
 10 11  1  0
 11 12  2  0
 11 13  1  0
 13 14  1  0
 14 15  2  0
 15 16  1  0
 16 17  2  0
 17 18  1  0
 18 19  2  0
 19 20  1  0
 20 21  1  0
 19 22  1  0
 22 23  2  0
 23 24  1  0
 10 25  2  0
 25  5  1  0
 24 14  1  0
 23 16  1  0
  1 26  1  0
  1 27  1  0
  1 28  1  0
  2 29  1  0
  2 30  1  0
  3 31  1  0
  3 32  1  0
  7 33  1  0
 13 34  1  0
 17 35  1  0
 18 36  1  0
 21 37  1  0
 21 38  1  0
 21 39  1  0
 22 40  1  0
M  END
>  <meeko>  (3) 
{"is_sidechain": [false], "free_energy": -5.33, "intermolecular_energy": -7.498, "internal_energy": -0.315}

$$$$
ligand-2BMF
     RDKit          3D

 40 42  0  0  0  0  0  0  0  0999 V2000
    1.6400    2.4500   50.5440 C   0  0  0  0  0  0  0  0  0  0  0  0
    0.9650    1.3700   51.3840 C   0  0  0  0  0  0  0  0  0  0  0  0
    1.8200    0.1010   51.4440 C   0  0  0  0  0  0  0  0  0  0  0  0
    1.6090   -0.8990   49.9300 S   0  0  0  0  0  0  0  0  0  0  0  0
    1.4290   -2.4570   50.7960 C   0  0  0  0  0  0  0  0  0  0  0  0
    1.9180   -3.5980   50.2500 N   0  0  0  0  0  0  0  0  0  0  0  0
    1.7970   -4.7860   50.8950 C   0  0  0  0  0  0  0  0  0  0  0  0
    1.1540   -4.8510   52.1330 C   0  0  0  0  0  0  0  0  0  0  0  0
    1.1260   -6.3900   52.9890 Cl  0  0  0  0  0  0  0  0  0  0  0  0
    0.6260   -3.6610   52.6760 C   0  0  0  0  0  0  0  0  0  0  0  0
   -0.0790   -3.6200   53.9700 C   0  0  0  0  0  0  0  0  0  0  0  0
    0.5280   -3.1670   54.9780 O   0  0  0  0  0  0  0  0  0  0  0  0
   -1.4580   -4.0090   54.0710 N   0  0  0  0  0  0  0  0  0  0  0  0
   -2.1260   -4.2400   55.3180 C   0  0  0  0  0  0  0  0  0  0  0  0
   -1.6380   -5.0350   56.3010 N   0  0  0  0  0  0  0  0  0  0  0  0
   -2.4950   -5.0800   57.3520 C   0  0  0  0  0  0  0  0  0  0  0  0
   -2.2730   -5.8120   58.5190 C   0  0  0  0  0  0  0  0  0  0  0  0
   -3.2420   -5.7770   59.5360 C   0  0  0  0  0  0  0  0  0  0  0  0
   -4.4270   -5.0100   59.3790 C   0  0  0  0  0  0  0  0  0  0  0  0
   -5.4170   -4.9490   60.3720 O   0  0  0  0  0  0  0  0  0  0  0  0
   -6.7920   -4.6830   60.1190 C   0  0  0  0  0  0  0  0  0  0  0  0
   -4.6300   -4.2810   58.1940 C   0  0  0  0  0  0  0  0  0  0  0  0
   -3.6520   -4.3350   57.2040 C   0  0  0  0  0  0  0  0  0  0  0  0
   -3.6340   -3.5750   55.7080 S   0  0  0  0  0  0  0  0  0  0  0  0
    0.7900   -2.4950   51.9940 N   0  0  0  0  0  0  0  0  0  0  0  0
    2.1049    3.1938   51.2079 H   0  0  0  0  0  0  0  0  0  0  0  0
    2.4125    1.9914   49.9092 H   0  0  0  0  0  0  0  0  0  0  0  0
    0.8893    2.9435   49.9092 H   0  0  0  0  0  0  0  0  0  0  0  0
    0.8154    1.7507   52.4051 H   0  0  0  0  0  0  0  0  0  0  0  0
    0.0003    1.1187   50.9189 H   0  0  0  0  0  0  0  0  0  0  0  0
    2.8782    0.3841   51.5441 H   0  0  0  0  0  0  0  0  0  0  0  0
    1.4993   -0.4984   52.3088 H   0  0  0  0  0  0  0  0  0  0  0  0
    2.2067   -5.7005   50.4412 H   0  0  0  0  0  0  0  0  0  0  0  0
   -2.0190   -4.1010   53.1950 H   0  0  0  0  0  0  0  0  0  0  0  0
   -1.3553   -6.4062   58.6407 H   0  0  0  0  0  0  0  0  0  0  0  0
   -3.0814   -6.3487   60.4619 H   0  0  0  0  0  0  0  0  0  0  0  0
   -7.3273   -4.5795   61.0744 H   0  0  0  0  0  0  0  0  0  0  0  0
   -6.8852   -3.7502   59.5435 H   0  0  0  0  0  0  0  0  0  0  0  0
   -7.2263   -5.5138   59.5435 H   0  0  0  0  0  0  0  0  0  0  0  0
   -5.5411   -3.6813   58.0520 H   0  0  0  0  0  0  0  0  0  0  0  0
  1  2  1  0
  2  3  1  0
  3  4  1  0
  4  5  1  0
  5  6  2  0
  6  7  1  0
  7  8  2  0
  8  9  1  0
  8 10  1  0
 10 11  1  0
 11 12  2  0
 11 13  1  0
 13 14  1  0
 14 15  2  0
 15 16  1  0
 16 17  2  0
 17 18  1  0
 18 19  2  0
 19 20  1  0
 20 21  1  0
 19 22  1  0
 22 23  2  0
 23 24  1  0
 10 25  2  0
 25  5  1  0
 24 14  1  0
 23 16  1  0
  1 26  1  0
  1 27  1  0
  1 28  1  0
  2 29  1  0
  2 30  1  0
  3 31  1  0
  3 32  1  0
  7 33  1  0
 13 34  1  0
 17 35  1  0
 18 36  1  0
 21 37  1  0
 21 38  1  0
 21 39  1  0
 22 40  1  0
M  END
>  <meeko>  (4) 
{"is_sidechain": [false], "free_energy": -5.313, "intermolecular_energy": -7.365, "internal_energy": -0.425}

$$$$
ligand-2BMF
     RDKit          3D

 40 42  0  0  0  0  0  0  0  0999 V2000
   -3.5640   -5.2750   59.7050 C   0  0  0  0  0  0  0  0  0  0  0  0
   -3.5970   -4.7640   58.2680 C   0  0  0  0  0  0  0  0  0  0  0  0
   -4.7330   -5.4170   57.4750 C   0  0  0  0  0  0  0  0  0  0  0  0
   -5.4770   -4.2280   56.3050 S   0  0  0  0  0  0  0  0  0  0  0  0
   -4.1250   -4.2950   55.1330 C   0  0  0  0  0  0  0  0  0  0  0  0
   -3.9200   -5.4160   54.3950 N   0  0  0  0  0  0  0  0  0  0  0  0
   -2.9040   -5.4830   53.4980 C   0  0  0  0  0  0  0  0  0  0  0  0
   -2.0450   -4.3950   53.3260 C   0  0  0  0  0  0  0  0  0  0  0  0
   -0.8180   -4.4800   52.0660 Cl  0  0  0  0  0  0  0  0  0  0  0  0
   -2.2530   -3.2480   54.1190 C   0  0  0  0  0  0  0  0  0  0  0  0
   -1.4000   -2.0490   54.0250 C   0  0  0  0  0  0  0  0  0  0  0  0
   -0.3210   -2.0180   54.6760 O   0  0  0  0  0  0  0  0  0  0  0  0
   -1.7440   -0.9670   53.1450 N   0  0  0  0  0  0  0  0  0  0  0  0
   -1.1150    0.3200   53.1880 C   0  0  0  0  0  0  0  0  0  0  0  0
    0.0770    0.5990   52.6040 N   0  0  0  0  0  0  0  0  0  0  0  0
    0.4310    1.8890   52.8290 C   0  0  0  0  0  0  0  0  0  0  0  0
    1.6030    2.4790   52.3540 C   0  0  0  0  0  0  0  0  0  0  0  0
    1.8550    3.8270   52.6590 C   0  0  0  0  0  0  0  0  0  0  0  0
    0.9340    4.5770   53.4370 C   0  0  0  0  0  0  0  0  0  0  0  0
    1.1500    5.9250   53.7610 O   0  0  0  0  0  0  0  0  0  0  0  0
    0.6660    6.5540   54.9420 C   0  0  0  0  0  0  0  0  0  0  0  0
   -0.2410    3.9620   53.9040 C   0  0  0  0  0  0  0  0  0  0  0  0
   -0.4640    2.6250   53.5870 C   0  0  0  0  0  0  0  0  0  0  0  0
   -1.7640    1.6520   54.0090 S   0  0  0  0  0  0  0  0  0  0  0  0
   -3.2970   -3.2280   54.9920 N   0  0  0  0  0  0  0  0  0  0  0  0
   -3.6190   -4.4229   60.3985 H   0  0  0  0  0  0  0  0  0  0  0  0
   -4.4209   -5.9431   59.8763 H   0  0  0  0  0  0  0  0  0  0  0  0
   -2.6283   -5.8274   59.8763 H   0  0  0  0  0  0  0  0  0  0  0  0
   -3.7463   -3.6742   58.2779 H   0  0  0  0  0  0  0  0  0  0  0  0
   -2.6425   -5.0198   57.7849 H   0  0  0  0  0  0  0  0  0  0  0  0
   -4.3337   -6.2739   56.9127 H   0  0  0  0  0  0  0  0  0  0  0  0
   -5.5090   -5.7489   58.1804 H   0  0  0  0  0  0  0  0  0  0  0  0
   -2.7563   -6.3972   52.9043 H   0  0  0  0  0  0  0  0  0  0  0  0
   -2.4680   -1.1290   52.4090 H   0  0  0  0  0  0  0  0  0  0  0  0
    2.3171    1.8987   51.7513 H   0  0  0  0  0  0  0  0  0  0  0  0
    2.7746    4.3060   52.2916 H   0  0  0  0  0  0  0  0  0  0  0  0
    1.0662    6.0339   55.8248 H   0  0  0  0  0  0  0  0  0  0  0  0
    0.9906    7.6049   54.9571 H   0  0  0  0  0  0  0  0  0  0  0  0
   -0.4330    6.5095   54.9571 H   0  0  0  0  0  0  0  0  0  0  0  0
   -0.9684    4.5253   54.5069 H   0  0  0  0  0  0  0  0  0  0  0  0
  1  2  1  0
  2  3  1  0
  3  4  1  0
  4  5  1  0
  5  6  2  0
  6  7  1  0
  7  8  2  0
  8  9  1  0
  8 10  1  0
 10 11  1  0
 11 12  2  0
 11 13  1  0
 13 14  1  0
 14 15  2  0
 15 16  1  0
 16 17  2  0
 17 18  1  0
 18 19  2  0
 19 20  1  0
 20 21  1  0
 19 22  1  0
 22 23  2  0
 23 24  1  0
 10 25  2  0
 25  5  1  0
 24 14  1  0
 23 16  1  0
  1 26  1  0
  1 27  1  0
  1 28  1  0
  2 29  1  0
  2 30  1  0
  3 31  1  0
  3 32  1  0
  7 33  1  0
 13 34  1  0
 17 35  1  0
 18 36  1  0
 21 37  1  0
 21 38  1  0
 21 39  1  0
 22 40  1  0
M  END
>  <meeko>  (5) 
{"is_sidechain": [false], "free_energy": -5.051, "intermolecular_energy": -6.892, "internal_energy": -0.544}

$$$$
