ligand-2BMF
     RDKit          3D

 40 42  0  0  0  0  0  0  0  0999 V2000
   -6.6870   -0.7150   50.3400 C   0  0  0  0  0  0  0  0  0  0  0  0
   -6.7750   -2.2120   50.0610 C   0  0  0  0  0  0  0  0  0  0  0  0
   -5.6010   -2.9630   50.6950 C   0  0  0  0  0  0  0  0  0  0  0  0
   -6.1530   -4.5480   51.4160 S   0  0  0  0  0  0  0  0  0  0  0  0
   -4.6750   -4.7970   52.3960 C   0  0  0  0  0  0  0  0  0  0  0  0
   -4.1470   -6.0410   52.5250 N   0  0  0  0  0  0  0  0  0  0  0  0
   -3.0240   -6.2480   53.2580 C   0  0  0  0  0  0  0  0  0  0  0  0
   -2.3970   -5.1780   53.9010 C   0  0  0  0  0  0  0  0  0  0  0  0
   -0.8770   -5.4720   54.7400 Cl  0  0  0  0  0  0  0  0  0  0  0  0
   -2.9720   -3.8960   53.7810 C   0  0  0  0  0  0  0  0  0  0  0  0
   -2.3970   -2.7020   54.4260 C   0  0  0  0  0  0  0  0  0  0  0  0
   -2.8810   -2.3110   55.5220 O   0  0  0  0  0  0  0  0  0  0  0  0
   -1.2530   -2.0400   53.8640 N   0  0  0  0  0  0  0  0  0  0  0  0
   -0.8020   -0.7450   54.2810 C   0  0  0  0  0  0  0  0  0  0  0  0
    0.3060   -0.5380   55.0340 N   0  0  0  0  0  0  0  0  0  0  0  0
    0.4710    0.7850   55.2910 C   0  0  0  0  0  0  0  0  0  0  0  0
    1.5220    1.3170   56.0380 C   0  0  0  0  0  0  0  0  0  0  0  0
    1.5780    2.7070   56.2340 C   0  0  0  0  0  0  0  0  0  0  0  0
    0.5830    3.5560   55.6830 C   0  0  0  0  0  0  0  0  0  0  0  0
    0.6050    4.9480   55.8560 O   0  0  0  0  0  0  0  0  0  0  0  0
    0.3190    5.8900   54.8280 C   0  0  0  0  0  0  0  0  0  0  0  0
   -0.4680    2.9970   54.9330 C   0  0  0  0  0  0  0  0  0  0  0  0
   -0.4970    1.6170   54.7550 C   0  0  0  0  0  0  0  0  0  0  0  0
   -1.6210    0.6930   53.9180 S   0  0  0  0  0  0  0  0  0  0  0  0
   -4.0900   -3.7430   53.0200 N   0  0  0  0  0  0  0  0  0  0  0  0
   -6.6770   -0.5445   51.4267 H   0  0  0  0  0  0  0  0  0  0  0  0
   -5.7637   -0.3132   49.8973 H   0  0  0  0  0  0  0  0  0  0  0  0
   -7.5569   -0.2077   49.8973 H   0  0  0  0  0  0  0  0  0  0  0  0
   -7.7162   -2.6000   50.4777 H   0  0  0  0  0  0  0  0  0  0  0  0
   -6.7402   -2.3662   48.9724 H   0  0  0  0  0  0  0  0  0  0  0  0
   -4.8429   -3.1631   49.9235 H   0  0  0  0  0  0  0  0  0  0  0  0
   -5.1782   -2.3406   51.4974 H   0  0  0  0  0  0  0  0  0  0  0  0
   -2.6060   -7.2617   53.3462 H   0  0  0  0  0  0  0  0  0  0  0  0
   -0.6950   -2.5360   53.1330 H   0  0  0  0  0  0  0  0  0  0  0  0
    2.2933    0.6598   56.4660 H   0  0  0  0  0  0  0  0  0  0  0  0
    2.4011    3.1416   56.8203 H   0  0  0  0  0  0  0  0  0  0  0  0
    0.0277    6.8494   55.2805 H   0  0  0  0  0  0  0  0  0  0  0  0
    1.2135    6.0352   54.2045 H   0  0  0  0  0  0  0  0  0  0  0  0
   -0.5053    5.5134   54.2045 H   0  0  0  0  0  0  0  0  0  0  0  0
   -1.2495    3.6366   54.4969 H   0  0  0  0  0  0  0  0  0  0  0  0
  1  2  1  0
  2  3  1  0
  3  4  1  0
  4  5  1  0
  5  6  2  0
  6  7  1  0
  7  8  2  0
  8  9  1  0
  8 10  1  0
 10 11  1  0
 11 12  2  0
 11 13  1  0
 13 14  1  0
 14 15  2  0
 15 16  1  0
 16 17  2  0
 17 18  1  0
 18 19  2  0
 19 20  1  0
 20 21  1  0
 19 22  1  0
 22 23  2  0
 23 24  1  0
 10 25  2  0
 25  5  1  0
 24 14  1  0
 23 16  1  0
  1 26  1  0
  1 27  1  0
  1 28  1  0
  2 29  1  0
  2 30  1  0
  3 31  1  0
  3 32  1  0
  7 33  1  0
 13 34  1  0
 17 35  1  0
 18 36  1  0
 21 37  1  0
 21 38  1  0
 21 39  1  0
 22 40  1  0
M  END
>  <meeko>  (1) 
{"is_sidechain": [false], "free_energy": -5.754, "intermolecular_energy": -7.773, "internal_energy": -0.545}

$$$$
ligand-2BMF
     RDKit          3D

 40 42  0  0  0  0  0  0  0  0999 V2000
   -1.9670   -0.3210   52.0970 C   0  0  0  0  0  0  0  0  0  0  0  0
   -2.2640   -0.4080   50.6030 C   0  0  0  0  0  0  0  0  0  0  0  0
   -1.5760   -1.6210   49.9730 C   0  0  0  0  0  0  0  0  0  0  0  0
    0.2360   -1.3940   49.9300 S   0  0  0  0  0  0  0  0  0  0  0  0
    0.6110   -2.9830   50.6660 C   0  0  0  0  0  0  0  0  0  0  0  0
    1.6290   -3.7350   50.1770 N   0  0  0  0  0  0  0  0  0  0  0  0
    1.9310   -4.9390   50.7250 C   0  0  0  0  0  0  0  0  0  0  0  0
    1.1880   -5.4270   51.8020 C   0  0  0  0  0  0  0  0  0  0  0  0
    1.6910   -6.9350   52.5600 Cl  0  0  0  0  0  0  0  0  0  0  0  0
    0.1160   -4.6470   52.2820 C   0  0  0  0  0  0  0  0  0  0  0  0
   -0.7370   -5.0730   53.4070 C   0  0  0  0  0  0  0  0  0  0  0  0
   -1.2770   -6.2110   53.3640 O   0  0  0  0  0  0  0  0  0  0  0  0
   -0.8880   -4.2450   54.5720 N   0  0  0  0  0  0  0  0  0  0  0  0
   -1.8860   -4.4650   55.5760 C   0  0  0  0  0  0  0  0  0  0  0  0
   -1.6280   -5.0140   56.7890 N   0  0  0  0  0  0  0  0  0  0  0  0
   -2.7670   -5.1180   57.5200 C   0  0  0  0  0  0  0  0  0  0  0  0
   -2.8280   -5.6400   58.8130 C   0  0  0  0  0  0  0  0  0  0  0  0
   -4.0730   -5.6960   59.4620 C   0  0  0  0  0  0  0  0  0  0  0  0
   -5.2480   -5.2290   58.8160 C   0  0  0  0  0  0  0  0  0  0  0  0
   -6.5070   -5.2670   59.4330 O   0  0  0  0  0  0  0  0  0  0  0  0
   -6.9800   -4.2890   60.3530 C   0  0  0  0  0  0  0  0  0  0  0  0
   -5.1620   -4.7070   57.5140 C   0  0  0  0  0  0  0  0  0  0  0  0
   -3.9160   -4.6650   56.8940 C   0  0  0  0  0  0  0  0  0  0  0  0
   -3.5270   -4.1020   55.3620 S   0  0  0  0  0  0  0  0  0  0  0  0
   -0.1330   -3.4400   51.7060 N   0  0  0  0  0  0  0  0  0  0  0  0
   -2.8702   -0.5856   52.6664 H   0  0  0  0  0  0  0  0  0  0  0  0
   -1.1559   -1.0193   52.3509 H   0  0  0  0  0  0  0  0  0  0  0  0
   -1.6608    0.7046   52.3509 H   0  0  0  0  0  0  0  0  0  0  0  0
   -3.3508   -0.4959   50.4575 H   0  0  0  0  0  0  0  0  0  0  0  0
   -1.8807    0.5016   50.1176 H   0  0  0  0  0  0  0  0  0  0  0  0
   -1.8126   -2.5171   50.5654 H   0  0  0  0  0  0  0  0  0  0  0  0
   -1.9403   -1.7349   48.9413 H   0  0  0  0  0  0  0  0  0  0  0  0
    2.7637   -5.5325   50.3196 H   0  0  0  0  0  0  0  0  0  0  0  0
   -0.2190   -3.4560   54.7180 H   0  0  0  0  0  0  0  0  0  0  0  0
   -1.9181   -6.0009   59.3148 H   0  0  0  0  0  0  0  0  0  0  0  0
   -4.1380   -6.1057   60.4808 H   0  0  0  0  0  0  0  0  0  0  0  0
   -6.8100   -4.6405   61.3814 H   0  0  0  0  0  0  0  0  0  0  0  0
   -6.4392   -3.3444   60.1942 H   0  0  0  0  0  0  0  0  0  0  0  0
   -8.0563   -4.1265   60.1942 H   0  0  0  0  0  0  0  0  0  0  0  0
   -6.0599   -4.3394   56.9958 H   0  0  0  0  0  0  0  0  0  0  0  0
  1  2  1  0
  2  3  1  0
  3  4  1  0
  4  5  1  0
  5  6  2  0
  6  7  1  0
  7  8  2  0
  8  9  1  0
  8 10  1  0
 10 11  1  0
 11 12  2  0
 11 13  1  0
 13 14  1  0
 14 15  2  0
 15 16  1  0
 16 17  2  0
 17 18  1  0
 18 19  2  0
 19 20  1  0
 20 21  1  0
 19 22  1  0
 22 23  2  0
 23 24  1  0
 10 25  2  0
 25  5  1  0
 24 14  1  0
 23 16  1  0
  1 26  1  0
  1 27  1  0
  1 28  1  0
  2 29  1  0
  2 30  1  0
  3 31  1  0
  3 32  1  0
  7 33  1  0
 13 34  1  0
 17 35  1  0
 18 36  1  0
 21 37  1  0
 21 38  1  0
 21 39  1  0
 22 40  1  0
M  END
>  <meeko>  (2) 
{"is_sidechain": [false], "free_energy": -5.583, "intermolecular_energy": -7.552, "internal_energy": -0.534}

$$$$
ligand-2BMF
     RDKit          3D

 40 42  0  0  0  0  0  0  0  0999 V2000
   -5.9100   -3.9590   60.2390 C   0  0  0  0  0  0  0  0  0  0  0  0
   -6.2320   -4.0860   58.7530 C   0  0  0  0  0  0  0  0  0  0  0  0
   -5.4630   -5.2480   58.1190 C   0  0  0  0  0  0  0  0  0  0  0  0
   -3.6710   -4.8950   58.0700 S   0  0  0  0  0  0  0  0  0  0  0  0
   -3.6550   -4.4050   56.3480 C   0  0  0  0  0  0  0  0  0  0  0  0
   -4.3810   -5.1010   55.4370 N   0  0  0  0  0  0  0  0  0  0  0  0
   -4.3860   -4.7410   54.1290 C   0  0  0  0  0  0  0  0  0  0  0  0
   -3.6330   -3.6470   53.6980 C   0  0  0  0  0  0  0  0  0  0  0  0
   -3.7640   -3.1410   52.0160 Cl  0  0  0  0  0  0  0  0  0  0  0  0
   -2.8610   -2.9500   54.6510 C   0  0  0  0  0  0  0  0  0  0  0  0
   -2.0230   -1.7880   54.3020 C   0  0  0  0  0  0  0  0  0  0  0  0
   -0.7770   -1.9460   54.2010 O   0  0  0  0  0  0  0  0  0  0  0  0
   -2.6170   -0.5160   53.9990 N   0  0  0  0  0  0  0  0  0  0  0  0
   -1.8710    0.7040   53.9050 C   0  0  0  0  0  0  0  0  0  0  0  0
   -1.7940    1.6200   54.9020 N   0  0  0  0  0  0  0  0  0  0  0  0
   -1.0370    2.6800   54.5220 C   0  0  0  0  0  0  0  0  0  0  0  0
   -0.7670    3.7860   55.3290 C   0  0  0  0  0  0  0  0  0  0  0  0
    0.0300    4.8220   54.8150 C   0  0  0  0  0  0  0  0  0  0  0  0
    0.5540    4.7460   53.4970 C   0  0  0  0  0  0  0  0  0  0  0  0
    1.3540    5.7600   52.9500 O   0  0  0  0  0  0  0  0  0  0  0  0
    1.9240    5.7160   51.6460 C   0  0  0  0  0  0  0  0  0  0  0  0
    0.2690    3.6220   52.7020 C   0  0  0  0  0  0  0  0  0  0  0  0
   -0.5250    2.6120   53.2380 C   0  0  0  0  0  0  0  0  0  0  0  0
   -1.0190    1.1770   52.5200 S   0  0  0  0  0  0  0  0  0  0  0  0
   -2.9060   -3.3440   55.9520 N   0  0  0  0  0  0  0  0  0  0  0  0
   -6.7722   -4.2991   60.8314 H   0  0  0  0  0  0  0  0  0  0  0  0
   -5.0333   -4.5787   60.4785 H   0  0  0  0  0  0  0  0  0  0  0  0
   -5.6923   -2.9077   60.4785 H   0  0  0  0  0  0  0  0  0  0  0  0
   -7.3112   -4.2617   58.6331 H   0  0  0  0  0  0  0  0  0  0  0  0
   -5.9334   -3.1543   58.2503 H   0  0  0  0  0  0  0  0  0  0  0  0
   -5.6345   -6.1590   58.7112 H   0  0  0  0  0  0  0  0  0  0  0  0
   -5.8221   -5.3861   57.0885 H   0  0  0  0  0  0  0  0  0  0  0  0
   -4.9854   -5.3130   53.4054 H   0  0  0  0  0  0  0  0  0  0  0  0
   -3.6420   -0.4740   53.8030 H   0  0  0  0  0  0  0  0  0  0  0  0
   -1.1715    3.8454   56.3502 H   0  0  0  0  0  0  0  0  0  0  0  0
    0.2505    5.7006   55.4391 H   0  0  0  0  0  0  0  0  0  0  0  0
    3.0178    5.6316   51.7266 H   0  0  0  0  0  0  0  0  0  0  0  0
    1.5282    4.8457   51.1020 H   0  0  0  0  0  0  0  0  0  0  0  0
    1.6664    6.6367   51.1020 H   0  0  0  0  0  0  0  0  0  0  0  0
    0.6648    3.5424   51.6788 H   0  0  0  0  0  0  0  0  0  0  0  0
  1  2  1  0
  2  3  1  0
  3  4  1  0
  4  5  1  0
  5  6  2  0
  6  7  1  0
  7  8  2  0
  8  9  1  0
  8 10  1  0
 10 11  1  0
 11 12  2  0
 11 13  1  0
 13 14  1  0
 14 15  2  0
 15 16  1  0
 16 17  2  0
 17 18  1  0
 18 19  2  0
 19 20  1  0
 20 21  1  0
 19 22  1  0
 22 23  2  0
 23 24  1  0
 10 25  2  0
 25  5  1  0
 24 14  1  0
 23 16  1  0
  1 26  1  0
  1 27  1  0
  1 28  1  0
  2 29  1  0
  2 30  1  0
  3 31  1  0
  3 32  1  0
  7 33  1  0
 13 34  1  0
 17 35  1  0
 18 36  1  0
 21 37  1  0
 21 38  1  0
 21 39  1  0
 22 40  1  0
M  END
>  <meeko>  (3) 
{"is_sidechain": [false], "free_energy": -5.461, "intermolecular_energy": -7.426, "internal_energy": -0.495}

$$$$
ligand-2BMF
     RDKit          3D

 40 42  0  0  0  0  0  0  0  0999 V2000
    1.9310    1.1060   52.9690 C   0  0  0  0  0  0  0  0  0  0  0  0
    1.3460    1.4230   51.5970 C   0  0  0  0  0  0  0  0  0  0  0  0
    0.5930    0.2180   51.0260 C   0  0  0  0  0  0  0  0  0  0  0  0
    1.6740   -0.7660   49.9300 S   0  0  0  0  0  0  0  0  0  0  0  0
    1.3900   -2.3160   50.7810 C   0  0  0  0  0  0  0  0  0  0  0  0
    1.8610   -3.4760   50.2560 N   0  0  0  0  0  0  0  0  0  0  0  0
    1.6620   -4.6580   50.8900 C   0  0  0  0  0  0  0  0  0  0  0  0
    0.9570   -4.7000   52.0950 C   0  0  0  0  0  0  0  0  0  0  0  0
    0.8260   -6.2370   52.9430 Cl  0  0  0  0  0  0  0  0  0  0  0  0
    0.4490   -3.4910   52.6140 C   0  0  0  0  0  0  0  0  0  0  0  0
   -0.3160   -3.4240   53.8730 C   0  0  0  0  0  0  0  0  0  0  0  0
    0.0870   -2.6590   54.7890 O   0  0  0  0  0  0  0  0  0  0  0  0
   -1.5460   -4.1510   54.0270 N   0  0  0  0  0  0  0  0  0  0  0  0
   -2.2010   -4.3390   55.2870 C   0  0  0  0  0  0  0  0  0  0  0  0
   -1.6820   -5.0660   56.3080 N   0  0  0  0  0  0  0  0  0  0  0  0
   -2.5330   -5.0860   57.3640 C   0  0  0  0  0  0  0  0  0  0  0  0
   -2.2810   -5.7470   58.5660 C   0  0  0  0  0  0  0  0  0  0  0  0
   -3.2480   -5.6940   59.5850 C   0  0  0  0  0  0  0  0  0  0  0  0
   -4.4600   -4.9780   59.3950 C   0  0  0  0  0  0  0  0  0  0  0  0
   -5.4470   -4.9000   60.3880 O   0  0  0  0  0  0  0  0  0  0  0  0
   -6.8450   -4.8330   60.1270 C   0  0  0  0  0  0  0  0  0  0  0  0
   -4.6920   -4.3190   58.1750 C   0  0  0  0  0  0  0  0  0  0  0  0
   -3.7170   -4.3900   57.1840 C   0  0  0  0  0  0  0  0  0  0  0  0
   -3.7300   -3.7080   55.6510 S   0  0  0  0  0  0  0  0  0  0  0  0
    0.6930   -2.3310   51.9460 N   0  0  0  0  0  0  0  0  0  0  0  0
    1.2512    1.4744   53.7515 H   0  0  0  0  0  0  0  0  0  0  0  0
    2.0540    0.0178   53.0727 H   0  0  0  0  0  0  0  0  0  0  0  0
    2.9098    1.5971   53.0727 H   0  0  0  0  0  0  0  0  0  0  0  0
    0.6503    2.2699   51.6902 H   0  0  0  0  0  0  0  0  0  0  0  0
    2.1718    1.6737   50.9149 H   0  0  0  0  0  0  0  0  0  0  0  0
    0.2472   -0.4167   51.8552 H   0  0  0  0  0  0  0  0  0  0  0  0
   -0.2628    0.5838   50.4397 H   0  0  0  0  0  0  0  0  0  0  0  0
    2.0573   -5.5872   50.4537 H   0  0  0  0  0  0  0  0  0  0  0  0
   -2.0100   -4.5390   53.1750 H   0  0  0  0  0  0  0  0  0  0  0  0
   -1.3418   -6.3002   58.7141 H   0  0  0  0  0  0  0  0  0  0  0  0
   -3.0644   -6.2117   60.5381 H   0  0  0  0  0  0  0  0  0  0  0  0
   -7.3949   -4.8066   61.0793 H   0  0  0  0  0  0  0  0  0  0  0  0
   -7.0671   -3.9232   59.5500 H   0  0  0  0  0  0  0  0  0  0  0  0
   -7.1531   -5.7174   59.5500 H   0  0  0  0  0  0  0  0  0  0  0  0
   -5.6240   -3.7593   58.0071 H   0  0  0  0  0  0  0  0  0  0  0  0
  1  2  1  0
  2  3  1  0
  3  4  1  0
  4  5  1  0
  5  6  2  0
  6  7  1  0
  7  8  2  0
  8  9  1  0
  8 10  1  0
 10 11  1  0
 11 12  2  0
 11 13  1  0
 13 14  1  0
 14 15  2  0
 15 16  1  0
 16 17  2  0
 17 18  1  0
 18 19  2  0
 19 20  1  0
 20 21  1  0
 19 22  1  0
 22 23  2  0
 23 24  1  0
 10 25  2  0
 25  5  1  0
 24 14  1  0
 23 16  1  0
  1 26  1  0
  1 27  1  0
  1 28  1  0
  2 29  1  0
  2 30  1  0
  3 31  1  0
  3 32  1  0
  7 33  1  0
 13 34  1  0
 17 35  1  0
 18 36  1  0
 21 37  1  0
 21 38  1  0
 21 39  1  0
 22 40  1  0
M  END
>  <meeko>  (4) 
{"is_sidechain": [false], "free_energy": -5.416, "intermolecular_energy": -7.326, "internal_energy": -0.534}

$$$$
ligand-2BMF
     RDKit          3D

 40 42  0  0  0  0  0  0  0  0999 V2000
    1.2260    5.1820   56.9830 C   0  0  0  0  0  0  0  0  0  0  0  0
    0.0350    4.5150   56.3020 C   0  0  0  0  0  0  0  0  0  0  0  0
   -0.1220    5.0040   54.8590 C   0  0  0  0  0  0  0  0  0  0  0  0
    1.2430    4.3920   53.8110 S   0  0  0  0  0  0  0  0  0  0  0  0
    0.9700    2.6630   54.1920 C   0  0  0  0  0  0  0  0  0  0  0  0
    1.9240    1.9520   54.8450 N   0  0  0  0  0  0  0  0  0  0  0  0
    1.7310    0.6440   55.1480 C   0  0  0  0  0  0  0  0  0  0  0  0
    0.5450    0.0040   54.7820 C   0  0  0  0  0  0  0  0  0  0  0  0
    0.2880   -1.6590   55.3010 Cl  0  0  0  0  0  0  0  0  0  0  0  0
   -0.4250    0.7480   54.0790 C   0  0  0  0  0  0  0  0  0  0  0  0
   -1.7070    0.1680   53.6370 C   0  0  0  0  0  0  0  0  0  0  0  0
   -2.7470    0.4120   54.3060 O   0  0  0  0  0  0  0  0  0  0  0  0
   -1.7910   -0.5930   52.4220 N   0  0  0  0  0  0  0  0  0  0  0  0
   -2.9250   -1.3930   52.0650 C   0  0  0  0  0  0  0  0  0  0  0  0
   -3.1990   -2.6020   52.6140 N   0  0  0  0  0  0  0  0  0  0  0  0
   -4.3220   -3.1330   52.0680 C   0  0  0  0  0  0  0  0  0  0  0  0
   -4.8640   -4.3680   52.4260 C   0  0  0  0  0  0  0  0  0  0  0  0
   -6.0330   -4.8070   51.7820 C   0  0  0  0  0  0  0  0  0  0  0  0
   -6.6520   -4.0100   50.7830 C   0  0  0  0  0  0  0  0  0  0  0  0
   -7.8200   -4.4140   50.1190 O   0  0  0  0  0  0  0  0  0  0  0  0
   -8.2070   -5.7710   49.9300 C   0  0  0  0  0  0  0  0  0  0  0  0
   -6.0880   -2.7690   50.4380 C   0  0  0  0  0  0  0  0  0  0  0  0
   -4.9290   -2.3600   51.0930 C   0  0  0  0  0  0  0  0  0  0  0  0
   -4.0520   -0.9450   50.8820 S   0  0  0  0  0  0  0  0  0  0  0  0
   -0.1870    2.0610   53.8160 N   0  0  0  0  0  0  0  0  0  0  0  0
    1.1083    5.1161   58.0747 H   0  0  0  0  0  0  0  0  0  0  0  0
    2.1531    4.6718   56.6827 H   0  0  0  0  0  0  0  0  0  0  0  0
    1.2754    6.2391   56.6827 H   0  0  0  0  0  0  0  0  0  0  0  0
    0.1880    3.4257   56.2973 H   0  0  0  0  0  0  0  0  0  0  0  0
   -0.8766    4.7758   56.8597 H   0  0  0  0  0  0  0  0  0  0  0  0
   -1.0776    4.6369   54.4563 H   0  0  0  0  0  0  0  0  0  0  0  0
   -0.1010    6.1038   54.8565 H   0  0  0  0  0  0  0  0  0  0  0  0
    2.5120    0.0850   55.6843 H   0  0  0  0  0  0  0  0  0  0  0  0
   -1.0000   -0.5410   51.7410 H   0  0  0  0  0  0  0  0  0  0  0  0
   -4.3845   -4.9869   53.1987 H   0  0  0  0  0  0  0  0  0  0  0  0
   -6.4731   -5.7777   52.0544 H   0  0  0  0  0  0  0  0  0  0  0  0
   -8.3444   -6.2529   50.9092 H   0  0  0  0  0  0  0  0  0  0  0  0
   -9.1515   -5.8080   49.3674 H   0  0  0  0  0  0  0  0  0  0  0  0
   -7.4241   -6.3006   49.3674 H   0  0  0  0  0  0  0  0  0  0  0  0
   -6.5519   -2.1353   49.6678 H   0  0  0  0  0  0  0  0  0  0  0  0
  1  2  1  0
  2  3  1  0
  3  4  1  0
  4  5  1  0
  5  6  2  0
  6  7  1  0
  7  8  2  0
  8  9  1  0
  8 10  1  0
 10 11  1  0
 11 12  2  0
 11 13  1  0
 13 14  1  0
 14 15  2  0
 15 16  1  0
 16 17  2  0
 17 18  1  0
 18 19  2  0
 19 20  1  0
 20 21  1  0
 19 22  1  0
 22 23  2  0
 23 24  1  0
 10 25  2  0
 25  5  1  0
 24 14  1  0
 23 16  1  0
  1 26  1  0
  1 27  1  0
  1 28  1  0
  2 29  1  0
  2 30  1  0
  3 31  1  0
  3 32  1  0
  7 33  1  0
 13 34  1  0
 17 35  1  0
 18 36  1  0
 21 37  1  0
 21 38  1  0
 21 39  1  0
 22 40  1  0
M  END
>  <meeko>  (5) 
{"is_sidechain": [false], "free_energy": -5.388, "intermolecular_energy": -7.263, "internal_energy": -0.559}

$$$$
