REMARK  7 active torsions:
REMARK  status: ('A' for Active; 'I' for Inactive)
REMARK    1  A    between atoms: C3_3  and  S4_48 
REMARK    2  A    between atoms: C8_10  and  C9_12 
REMARK    3  A    between atoms: C15_20  and  C16_22 
REMARK    4  A    between atoms: C19_25  and  N3_28 
REMARK       I    between atoms: N3_28  and  C22_29 
REMARK    5  A    between atoms: C22_29  and  C23_31 
REMARK    6  A    between atoms: C29_39  and  C30_41 
REMARK    7  A    between atoms: C33_44  and  N5_47 
ROOT
HETATM    1  C16 UNL     1       0.865   0.878  -0.283  1.00  0.00    -0.039 A 
HETATM    2  C17 UNL     1       0.129   0.294   0.764  1.00  0.00     0.012 A 
HETATM    3  C18 UNL     1      -1.269   0.344   0.765  1.00  0.00     0.028 A 
HETATM    4  C19 UNL     1      -1.959   0.969  -0.287  1.00  0.00     0.011 A 
HETATM    5  C20 UNL     1      -1.227   1.578  -1.316  1.00  0.00     0.005 A 
HETATM    6  C21 UNL     1       0.170   1.525  -1.321  1.00  0.00     0.029 A 
HETATM    7  N6  UNL     1       0.001  -0.001  -0.001  1.00  0.00     0.000 N 
HETATM    8  H23 UNL     1      -0.415  -0.708  -0.648  1.00  0.00     0.000 HD
HETATM    9  H24 UNL     1      -0.661   0.178   0.787  1.00  0.00     0.031 HD
HETATM   10  H25 UNL     1       0.171   0.890  -0.519  1.00  0.00     0.033 HD
HETATM   11  H26 UNL     1       0.905  -0.359   0.380  1.00  0.00     0.029 HD
ENDROOT
BRANCH   1  12
HETATM   12  C15 UNL     1       2.345   0.820  -0.304  1.00  0.00     0.078 A 
HETATM   13  N2  UNL     1       3.094   1.334  -1.313  1.00  0.00    -0.349 N 
HETATM   14  C12 UNL     1       4.419   1.142  -1.094  1.00  0.00     0.050 A 
ATOM     15  H2  UNL     1       2.709   1.805  -2.132  1.00  0.00     0.166 HD
HETATM   16  C11 UNL     1       4.735   0.482   0.079  1.00  0.00     0.034 A 
HETATM   17  C13 UNL     1       5.427   1.554  -1.964  1.00  0.00     0.032 A 
HETATM   18  C10 UNL     1       6.049   0.199   0.441  1.00  0.00     0.035 A 
HETATM   19  S2  UNL     1       3.320   0.110   0.894  1.00  0.00    -0.070 SA
HETATM   20  C9  UNL     1       7.088   0.599  -0.427  1.00  0.00    -0.001 A 
HETATM   21  C14 UNL     1       6.764   1.280  -1.629  1.00  0.00     0.016 A 
BRANCH  20  22
HETATM   22  C8  UNL     1       8.494   0.292  -0.084  1.00  0.00     0.085 A 
HETATM   23  N1  UNL     1       8.869  -0.253   1.099  1.00  0.00    -0.349 N 
HETATM   24  C5  UNL     1      10.210  -0.462   1.152  1.00  0.00     0.052 A 
ATOM     25  H1  UNL     1       8.224  -0.478   1.856  1.00  0.00     0.166 HD
HETATM   26  C4  UNL     1      10.926  -0.091   0.021  1.00  0.00     0.058 A 
HETATM   27  C6  UNL     1      10.858  -1.027   2.244  1.00  0.00     0.031 A 
HETATM   28  C3  UNL     1      12.318  -0.270  -0.080  1.00  0.00     0.105 A 
HETATM   29  S1  UNL     1       9.829   0.524  -1.100  1.00  0.00    -0.068 SA
HETATM   30  C2  UNL     1      12.977  -0.891   1.020  1.00  0.00    -0.036 A 
HETATM   31  C1  UNL     1      14.456  -1.169   1.003  1.00  0.00     0.050 C 
HETATM   32  C7  UNL     1      12.239  -1.241   2.176  1.00  0.00     0.011 A 
BRANCH  28  33
HETATM   33  S4  UNL     1      13.206   0.211  -1.544  1.00  0.00     0.139 S 
HETATM   34  O2  UNL     1      14.496   0.884  -1.166  1.00  0.00    -0.591 OA
HETATM   35  O3  UNL     1      12.408   1.174  -2.378  1.00  0.00    -0.591 OA
HETATM   36  O4  UNL     1      13.536  -1.160  -2.460  1.00  0.00    -0.591 OA
ENDBRANCH  28  33
ENDBRANCH  20  22
ENDBRANCH   1  12
BRANCH   4  37
HETATM   37  N3  UNL     1      -3.395   1.037  -0.308  1.00  0.00    -0.327 N 
HETATM   38  C22 UNL     1      -4.250  -0.034   0.128  1.00  0.00     0.256 C 
HETATM   39  O1  UNL     1      -3.763  -1.173   0.363  1.00  0.00    -0.267 OA
HETATM   40  H13 UNL     1      -3.832   1.838  -0.818  1.00  0.00     0.169 HD
BRANCH  38  41
HETATM   41  C23 UNL     1      -5.713   0.164   0.238  1.00  0.00     0.033 A 
HETATM   42  C24 UNL     1      -6.586  -0.939   0.102  1.00  0.00     0.038 A 
HETATM   43  C25 UNL     1      -7.957  -0.713   0.175  1.00  0.00     0.034 A 
HETATM   44  C26 UNL     1      -8.487   0.546   0.391  1.00  0.00     0.050 A 
HETATM   45  S3  UNL     1      -9.211  -1.812   0.006  1.00  0.00    -0.070 SA
HETATM   46  C27 UNL     1      -7.646   1.646   0.552  1.00  0.00     0.032 A 
HETATM   47  N4  UNL     1      -9.843   0.607   0.418  1.00  0.00    -0.349 N 
HETATM   48  C28 UNL     1      -6.256   1.453   0.474  1.00  0.00     0.019 A 
HETATM   49  C29 UNL     1     -10.399  -0.616   0.219  1.00  0.00     0.085 A 
ATOM     50  H4  UNL     1     -10.377   1.463   0.569  1.00  0.00     0.166 HD
BRANCH  49  51
HETATM   51  C30 UNL     1     -11.862  -0.843   0.178  1.00  0.00    -0.002 A 
HETATM   52  C31 UNL     1     -12.389  -2.126  -0.058  1.00  0.00     0.016 A 
HETATM   53  C32 UNL     1     -13.772  -2.327  -0.106  1.00  0.00     0.030 A 
HETATM   54  C33 UNL     1     -14.650  -1.252   0.081  1.00  0.00     0.025 A 
HETATM   55  C34 UNL     1     -14.132   0.028   0.319  1.00  0.00     0.030 A 
HETATM   56  C35 UNL     1     -12.750   0.232   0.368  1.00  0.00     0.016 A 
BRANCH  54  57
HETATM   57  N5  UNL     1     -16.064  -1.460   0.029  1.00  0.00    -0.399 N 
HETATM   58  H21 UNL     1     -16.726  -0.665   0.168  1.00  0.00     0.156 HD
HETATM   59  H22 UNL     1     -16.460  -2.411  -0.141  1.00  0.00     0.156 HD
ENDBRANCH  54  57
ENDBRANCH  49  51
ENDBRANCH  38  41
ENDBRANCH   4  37
TORSDOF 7
