REMARK  5 active torsions:
REMARK  status: ('A' for Active; 'I' for Inactive)
REMARK    1  A    between atoms: C2_2  and  O1_3 
REMARK    2  A    between atoms: O1_3  and  C3_4 
REMARK    3  A    between atoms: C9_11  and  N2_14 
REMARK       I    between atoms: N2_14  and  C10_15 
REMARK    4  A    between atoms: C10_15  and  C11_17 
REMARK    5  A    between atoms: C14_22  and  S2_25 
ROOT
HETATM    1  N2  UNL     1      -1.574   1.014   0.714  1.00  0.00    -0.302 N 
HETATM    2  C10 UNL     1      -2.565   0.388  -0.116  1.00  0.00     0.275 C 
HETATM    3  O2  UNL     1      -2.269   0.005  -1.279  1.00  0.00    -0.266 OA
HETATM    4  H9  UNL     1      -1.898   1.640   1.486  1.00  0.00     0.171 HD
ENDROOT
BRANCH   1   5
HETATM    5  C9  UNL     1      -0.159   0.865   0.534  1.00  0.00     0.152 A 
HETATM    6  S1  UNL     1       0.593  -0.261  -0.492  1.00  0.00    -0.052 SA
HETATM    7  C7  UNL     1       2.126   0.233  -0.020  1.00  0.00     0.037 A 
HETATM    8  C6  UNL     1       2.010   1.243   0.920  1.00  0.00     0.051 A 
HETATM    9  C8  UNL     1       3.362  -0.245  -0.447  1.00  0.00     0.058 A 
HETATM   10  C5  UNL     1       3.150   1.821   1.476  1.00  0.00     0.034 A 
HETATM   11  N1  UNL     1       0.739   1.597   1.238  1.00  0.00    -0.335 N 
HETATM   12  C4  UNL     1       4.412   1.360   1.063  1.00  0.00     0.039 A 
HETATM   13  C3  UNL     1       4.530   0.330   0.105  1.00  0.00     0.070 A 
ATOM     14  H1  UNL     1       0.492   2.318   1.916  1.00  0.00     0.168 HD
BRANCH  13  15
HETATM   15  O1  UNL     1       5.816  -0.087  -0.266  1.00  0.00    -0.351 OA
BRANCH  15  16
HETATM   16  C2  UNL     1       6.086  -1.113  -1.218  1.00  0.00     0.171 C 
HETATM   17  C1  UNL     1       7.588  -1.290  -1.362  1.00  0.00     0.034 C 
ENDBRANCH  15  16
ENDBRANCH  13  15
ENDBRANCH   1   5
BRANCH   2  18
HETATM   18  C11 UNL     1      -3.965   0.279   0.334  1.00  0.00     0.121 A 
HETATM   19  C12 UNL     1      -4.316  -0.088   1.650  1.00  0.00     0.058 A 
HETATM   20  C13 UNL     1      -5.672  -0.152   1.978  1.00  0.00     0.112 A 
HETATM   21 BR1  UNL     1      -3.034  -0.613   2.978  1.00  0.00    -0.047 Br
HETATM   22  N3  UNL     1      -6.616   0.118   1.041  1.00  0.00    -0.345 N 
HETATM   23  C14 UNL     1      -6.264   0.449  -0.226  1.00  0.00     0.144 A 
ATOM     24  H3  UNL     1      -7.603   0.071   1.293  1.00  0.00     0.167 HD
HETATM   25  N4  UNL     1      -4.952   0.524  -0.570  1.00  0.00    -0.331 N 
ATOM     26  H4  UNL     1      -4.701   0.770  -1.528  1.00  0.00     0.168 HD
BRANCH  23  27
HETATM   27  S2  UNL     1      -7.527   0.789  -1.446  1.00  0.00    -0.098 SA
HETATM   28  C15 UNL     1      -7.625  -0.943  -1.995  1.00  0.00     0.099 C 
ENDBRANCH  23  27
ENDBRANCH   2  18
TORSDOF 5
